data_ALIPEQ

_audit_creation_method RASPA-1.0
_audit_creation_date 2020-1-15
_audit_author_name 'Rocio Bueno-Perez'

_cell_length_a    8.793
_cell_length_b    8.793
_cell_length_c    24.53
_cell_angle_alpha 90
_cell_angle_beta  90
_cell_angle_gamma 120
_cell_volume      1642.49

_symmetry_cell_setting          hexagonal
_symmetry_space_group_name_Hall 'P 1'
_symmetry_space_group_name_H-M  'P 1'
_symmetry_Int_Tables_number     1

_symmetry_equiv_pos_as_xyz 'x,y,z'

loop_
_atom_site_label
_atom_site_type_symbol
_atom_site_fract_x
_atom_site_fract_y
_atom_site_fract_z
_atom_site_charge
Cd1      Cd     0.500000000000     0.500000000000     0.666700000000     0          
Zr1      Zr     0.000000000000     0.500000000000     0.833300000000     0          
O1       O      0.563800000000     0.306000000000     0.723600000000     0          
O2       O      0.911200000000     0.658000000000     0.786600000000     0          
O3       O      0.740500000000     0.660200000000     0.719500000000     0          
O4       O      0.768200000000     0.316700000000     0.780900000000     0          
C1       C      0.703300000000     0.382700000000     0.750500000000     0          
C2       C      0.788800000000     0.584100000000     0.751700000000     0          
O1C      O      0.436200000000     0.694000000000     0.723600000000     0          
O2C      O      0.088800000000     0.342000000000     0.786600000000     0          
O3C      O      0.259500000000     0.339800000000     0.719500000000     0          
O4C      O      0.231800000000     0.683300000000     0.780900000000     0          
C1C      C      0.296700000000     0.617300000000     0.750500000000     0          
C2C      C      0.211200000000     0.415900000000     0.751700000000     0          
O1F      O      0.306000000000     0.563800000000     0.609700000000     0          
O2F      O      0.658000000000     0.911200000000     0.546700000000     0          
O3F      O      0.660200000000     0.740500000000     0.613800000000     0          
O4F      O      0.316700000000     0.768200000000     0.552400000000     0          
C1F      C      0.382700000000     0.703300000000     0.582800000000     0          
C2F      C      0.584100000000     0.788800000000     0.581600000000     0          
O1I      O      0.694000000000     0.436200000000     0.609700000000     0          
O2I      O      0.342000000000     0.088800000000     0.546700000000     0          
O3I      O      0.339800000000     0.259500000000     0.613800000000     0          
O4I      O      0.683300000000     0.231800000000     0.552400000000     0          
C1I      C      0.617300000000     0.296700000000     0.582800000000     0          
C2I      C      0.415900000000     0.211200000000     0.581600000000     0          
O2H      O      0.088800000000     0.746800000000     0.880100000000     0          
O2K      O      0.911200000000     0.253200000000     0.880100000000     0          
O4H      O      0.231800000000     0.548500000000     0.885800000000     0          
O4K      O      0.768200000000     0.451500000000     0.885800000000     0          
Zr1B     Zr     0.500000000000     0.000000000000     0.500000000000     0          
Cd1      Cd     0.000000000000     0.500000000000     0.333366666667     0          
O1       O      0.257800000000     0.563800000000     0.390266666667     0          
O2       O      0.253200000000     0.911200000000     0.453266666667     0          
O3       O      0.080300000000     0.740500000000     0.386166666667     0          
O4       O      0.451500000000     0.768200000000     0.447566666667     0          
C1       C      0.320600000000     0.703300000000     0.417166666667     0          
C2       C      0.204700000000     0.788800000000     0.418366666667     0          
O1C      O      0.742200000000     0.436200000000     0.390266666667     0          
O2C      O      0.746800000000     0.088800000000     0.453266666667     0          
O3C      O      0.919700000000     0.259500000000     0.386166666667     0          
O4C      O      0.548500000000     0.231800000000     0.447566666667     0          
C1C      C      0.679400000000     0.296700000000     0.417166666667     0          
C2C      C      0.795300000000     0.211200000000     0.418366666667     0          
O1F      O      0.742200000000     0.306000000000     0.276366666667     0          
O2F      O      0.746800000000     0.658000000000     0.213366666667     0          
O3F      O      0.919700000000     0.660200000000     0.280466666667     0          
O4F      O      0.548500000000     0.316700000000     0.219066666667     0          
C1F      C      0.679400000000     0.382700000000     0.249466666667     0          
C2F      C      0.795300000000     0.584100000000     0.248266666667     0          
O1I      O      0.257800000000     0.694000000000     0.276366666667     0          
O2I      O      0.253200000000     0.342000000000     0.213366666667     0          
O3I      O      0.080300000000     0.339800000000     0.280466666667     0          
O4I      O      0.451500000000     0.683300000000     0.219066666667     0          
C1I      C      0.320600000000     0.617300000000     0.249466666667     0          
C2I      C      0.204700000000     0.415900000000     0.248266666667     0          
Zr1B     Zr     0.500000000000     0.500000000000     0.166666666667     0          
Cd1      Cd     0.500000000000     0.000000000000     0.000033333333     0          
O1       O      0.694000000000     0.257800000000     0.056933333333     0          
O2       O      0.342000000000     0.253200000000     0.119933333333     0          
O3       O      0.339800000000     0.080300000000     0.052833333333     0          
O4       O      0.683300000000     0.451500000000     0.114233333333     0          
C1       C      0.617300000000     0.320600000000     0.083833333333     0          
C2       C      0.415900000000     0.204700000000     0.085033333333     0          
O1C      O      0.306000000000     0.742200000000     0.056933333333     0          
O2C      O      0.658000000000     0.746800000000     0.119933333333     0          
O3C      O      0.660200000000     0.919700000000     0.052833333333     0          
O4C      O      0.316700000000     0.548500000000     0.114233333333     0          
C1C      C      0.382700000000     0.679400000000     0.083833333333     0          
C2C      C      0.584100000000     0.795300000000     0.085033333333     0          
O1F      O      0.436200000000     0.742200000000     0.943033333333     0          
O3F      O      0.259500000000     0.919700000000     0.947133333333     0          
C1F      C      0.296700000000     0.679400000000     0.916133333333     0          
C2F      C      0.211200000000     0.795300000000     0.914933333333     0          
O1I      O      0.563800000000     0.257800000000     0.943033333333     0          
O3I      O      0.740500000000     0.080300000000     0.947133333333     0          
C1I      C      0.703300000000     0.320600000000     0.916133333333     0          
C2I      C      0.788800000000     0.204700000000     0.914933333333     0          


