data_BERNAQ

_audit_creation_method RASPA-1.0
_audit_creation_date 2020-4-3
_audit_author_name 'Rocio Bueno-Perez'

_cell_length_a    12.2903
_cell_length_b    16.666
_cell_length_c    19.138
_cell_angle_alpha 72.79
_cell_angle_beta  80.54
_cell_angle_gamma 74.886
_cell_volume      3598.8

_symmetry_cell_setting          triclinic
_symmetry_space_group_name_Hall 'P 1'
_symmetry_space_group_name_H-M  'P 1'
_symmetry_Int_Tables_number     1

_symmetry_equiv_pos_as_xyz 'x,y,z'

loop_
_atom_site_label
_atom_site_type_symbol
_atom_site_fract_x
_atom_site_fract_y
_atom_site_fract_z
_atom_site_charge
Zr1      Zr     0.395240000000     0.292500000000     0.093460000000     0          
O1       O      0.387300000000     0.208800000000     0.025360000000     0          
O2       O      0.256700000000     0.232000000000     0.154370000000     0          
O3       O      0.253200000000     0.397900000000     0.115890000000     0          
O4       O      0.482700000000     0.402400000000     0.084270000000     0          
O5       O      0.432200000000     0.288700000000     0.195180000000     0          
O6       O      0.566800000000     0.260480000000     0.060040000000     0          
O7       O      0.474700000000     0.148120000000     0.157580000000     0          
O8       O      0.344700000000     0.376000000000     0.986720000000     0          
C1       C      0.454400000000     0.146900000000     0.004800000000     0          
C2       C      0.240400000000     0.183000000000     0.217900000000     0          
C3       C      0.241300000000     0.455100000000     0.149000000000     0          
Zr2      Zr     0.665700000000     0.348290000000     0.044430000000     0          
Zr3      Zr     0.492040000000     0.387840000000     0.205080000000     0          
H1       H      0.445960000000     0.460960000000     0.054960000000     0          
Zr4      Zr     0.483420000000     0.170290000000     0.265340000000     0          
Zr5      Zr     0.647710000000     0.134410000000     0.103710000000     0          
H2       H      0.433670000000     0.103310000000     0.158280000000     0          
C4       C      0.313100000000     0.455800000000     0.956800000000     0          
O9       O      0.551100000000     0.110200000000     0.027100000000     0          
C5       C      0.421200000000     0.116600000000     0.946900000000     0          
O10      O      0.310200000000     0.155600000000     0.266300000000     0          
C6       C      0.131300000000     0.152900000000     0.236100000000     0          
O11      O      0.313700000000     0.460200000000     0.185760000000     0          
C7       C      0.131700000000     0.522500000000     0.142600000000     0          
O12      O      0.765200000000     0.286500000000     0.960210000000     0          
O13      O      0.649600000000     0.341000000000     0.155570000000     0          
O14      O      0.764900000000     0.214100000000     0.104510000000     0          
O15      O      0.839300000000     0.359800000000     0.046870000000     0          
O16      O      0.658400000000     0.487900000000     0.022840000000     0          
O17      O      0.587000000000     0.417700000000     0.940780000000     0          
O18      O      0.390200000000     0.372000000000     0.311580000000     0          
O19      O      0.581900000000     0.254800000000     0.283870000000     0          
O20      O      0.494500000000     0.524700000000     0.162770000000     0          
O21      O      0.600500000000     0.417400000000     0.273420000000     0          
O22      O      0.376700000000     0.233200000000     0.347770000000     0          
O23      O      0.644500000000     0.147400000000     0.211180000000     0          
O24      O      0.551400000000     0.084700000000     0.373000000000     0          
O25      O      0.504400000000     0.023600000000     0.300200000000     0          
O26      O      0.754000000000     0.148100000000     0.996360000000     0          
O27      O      0.806200000000     0.028300000000     0.132800000000     0          
O28      O      0.642200000000     0.995000000000     0.152500000000     0          
C8       C      0.241100000000     0.478700000000     0.895900000000     0          
H3       H      0.419300000000     0.055500000000     0.966040000000     0          
H4       H      0.476550000000     0.124040000000     0.903670000000     0          
H5       H      0.346130000000     0.150350000000     0.933050000000     0          
H6       H      0.113840000000     0.136170000000     0.289530000000     0          
H7       H      0.139060000000     0.103220000000     0.216730000000     0          
H8       H      0.069970000000     0.199700000000     0.213860000000     0          
H9       H      0.127620000000     0.558960000000     0.175210000000     0          
H10      H      0.067840000000     0.494150000000     0.156610000000     0          
H11      H      0.128420000000     0.558160000000     0.091720000000     0          
C9       C      0.793100000000     0.210200000000     0.953700000000     0          
Zr6      Zr     0.744260000000     0.229360000000     0.217230000000     0          
H12      H      0.844520000000     0.195720000000     0.083480000000     0          
C10      C      0.910900000000     0.329400000000     0.094400000000     0          
C11      C      0.352300000000     0.309200000000     0.354500000000     0          
H13      H      0.585160000000     0.253900000000     0.335970000000     0          
C12      C      0.449700000000     0.589200000000     0.113900000000     0          
C13      C      0.548800000000     0.016300000000     0.357300000000     0          
H14      H      0.270660000000     0.438790000000     0.864950000000     0          
H15      H      0.241430000000     0.537710000000     0.866290000000     0          
H16      H      0.163430000000     0.474700000000     0.916000000000     0          
C14      C      0.877600000000     0.194400000000     0.891200000000     0          
O29      O      0.891800000000     0.284800000000     0.159000000000     0          
O30      O      0.891000000000     0.110300000000     0.228100000000     0          
O31      O      0.797000000000     0.139500000000     0.327400000000     0          
O32      O      0.765700000000     0.318300000000     0.276100000000     0          
C15      C      0.026100000000     0.348600000000     0.070200000000     0          
C16      C      0.273300000000     0.326000000000     0.419200000000     0          
C17      C      0.442600000000     0.676400000000     0.125600000000     0          
C18      C      0.596600000000     0.929900000000     0.405600000000     0          
H17      H      0.888300000000     0.134640000000     0.889310000000     0          
H18      H      0.949830000000     0.204330000000     0.897940000000     0          
H19      H      0.850270000000     0.233700000000     0.845100000000     0          
C19      C      0.873000000000     0.088300000000     0.297600000000     0          
H20      H      0.019080000000     0.404950000000     0.034050000000     0          
H21      H      0.074270000000     0.304010000000     0.047860000000     0          
H22      H      0.060030000000     0.349390000000     0.112760000000     0          
C20      C      0.222500000000     0.408300000000     0.423700000000     0          
C21      C      0.252100000000     0.257200000000     0.476800000000     0          
H23      H      0.511370000000     0.675060000000     0.145990000000     0          
H24      H      0.376440000000     0.690140000000     0.159840000000     0          
H25      H      0.435500000000     0.720470000000     0.078480000000     0          
H26      H      0.557730000000     0.924160000000     0.455170000000     0          
H27      H      0.677640000000     0.923910000000     0.407510000000     0          
H28      H      0.586040000000     0.884910000000     0.385690000000     0          
C22      C      0.937600000000     0.005200000000     0.343900000000     0          
H29      H      0.232890000000     0.455830000000     0.383110000000     0          
C23      C      0.156000000000     0.423000000000     0.486700000000     0          
C24      C      0.188800000000     0.270700000000     0.540400000000     0          
H30      H      0.281380000000     0.200000000000     0.472470000000     0          
H31      H      0.963310000000     0.016420000000     0.385240000000     0          
H32      H      0.003250000000     0.980790000000     0.313980000000     0          
H33      H      0.888230000000     0.964320000000     0.362720000000     0          
H34      H      0.119260000000     0.480070000000     0.488690000000     0          
C25      C      0.143500000000     0.353000000000     0.547200000000     0          
H35      H      0.176420000000     0.222700000000     0.579990000000     0          
P1       P      0.063550000000     0.375540000000     0.631590000000     0          
C26      C      0.136700000000     0.451000000000     0.647600000000     0          
C27      C      0.120900000000     0.274900000000     0.699500000000     0          
C28      C      0.073800000000     0.509000000000     0.686500000000     0          
C29      C      0.248300000000     0.450900000000     0.625100000000     0          
C30      C      0.226700000000     0.255300000000     0.722900000000     0          
C31      C      0.054200000000     0.213100000000     0.724300000000     0          
H36      H      0.995040000000     0.512090000000     0.699080000000     0          
C32      C      0.124200000000     0.562000000000     0.707100000000     0          
C33      C      0.301300000000     0.503100000000     0.647300000000     0          
H37      H      0.289920000000     0.415480000000     0.594480000000     0          
H38      H      0.271640000000     0.297070000000     0.707320000000     0          
C34      C      0.268700000000     0.175500000000     0.768900000000     0          
C35      C      0.096700000000     0.133300000000     0.770700000000     0          
H39      H      0.980210000000     0.226000000000     0.709310000000     0          
H40      H      0.080940000000     0.600960000000     0.734170000000     0          
C36      C      0.240500000000     0.557800000000     0.687600000000     0          
H41      H      0.379940000000     0.500260000000     0.634160000000     0          
H42      H      0.342210000000     0.162520000000     0.784570000000     0          
C37      C      0.203400000000     0.114300000000     0.792000000000     0          
H43      H      0.051580000000     0.091670000000     0.787680000000     0          
C38      C      0.296500000000     0.612800000000     0.713200000000     0          
C39      C      0.253300000000     0.026800000000     0.838500000000     0          
C40      C      0.153900000000     0.066300000000     0.018200000000     0          
H44      H      0.157950000000     0.007340000000     0.016780000000     0          
H45      H      0.221150000000     0.067790000000     0.038730000000     0          
H46      H      0.150590000000     0.104690000000     0.968340000000     0          
C41      C      0.049700000000     0.095700000000     0.065500000000     0          
O33      O      0.046100000000     0.039600000000     0.131900000000     0          
H47      H      0.987160000000     0.056980000000     0.157420000000     0          
O34      O      0.980600000000     0.161600000000     0.048300000000     0          
C42      C      0.303500000000     0.893600000000     0.178100000000     0          
H48      H      0.342490000000     0.833670000000     0.198360000000     0          
H49      H      0.300930000000     0.904470000000     0.125100000000     0          
H50      H      0.226210000000     0.903910000000     0.201990000000     0          
C43      C      0.367200000000     0.954000000000     0.191700000000     0          
O35      O      0.428800000000     0.916600000000     0.246400000000     0          
H51      H      0.463150000000     0.951360000000     0.252060000000     0          
O36      O      0.358500000000     0.028000000000     0.156600000000     0          
O16A     O      0.341600000000     0.512100000000     0.977160000000     0          
Zr2A     Zr     0.334300000000     0.651710000000     0.955570000000     0          
O17A     O      0.413000000000     0.582300000000     0.059220000000     0          
O32A     O      0.234300000000     0.681700000000     0.723900000000     0          
O21A     O      0.399500000000     0.582600000000     0.726580000000     0          
O27A     O      0.193800000000     0.971700000000     0.867200000000     0          
O28A     O      0.357800000000     0.005000000000     0.847500000000     0          
Zr6A     Zr     0.255740000000     0.770640000000     0.782770000000     0          
Zr3A     Zr     0.507960000000     0.612160000000     0.794920000000     0          
Zr5A     Zr     0.352290000000     0.865590000000     0.896290000000     0          
Zr1      Zr     0.604760000000     0.707500000000     0.906540000000     0          
O1       O      0.612700000000     0.791200000000     0.974640000000     0          
O2       O      0.743300000000     0.768000000000     0.845630000000     0          
O3       O      0.746800000000     0.602100000000     0.884110000000     0          
O4       O      0.517300000000     0.597600000000     0.915730000000     0          
O5       O      0.567800000000     0.711300000000     0.804820000000     0          
O6       O      0.433200000000     0.739520000000     0.939960000000     0          
O7       O      0.525300000000     0.851880000000     0.842420000000     0          
O8       O      0.655300000000     0.624000000000     0.013280000000     0          
C1       C      0.545600000000     0.853100000000     0.995200000000     0          
C2       C      0.759600000000     0.817000000000     0.782100000000     0          
C3       C      0.758700000000     0.544900000000     0.851000000000     0          
H1       H      0.554040000000     0.539040000000     0.945040000000     0          
Zr4      Zr     0.516580000000     0.829710000000     0.734660000000     0          
H2       H      0.566330000000     0.896690000000     0.841720000000     0          
C4       C      0.686900000000     0.544200000000     0.043200000000     0          
O9       O      0.448900000000     0.889800000000     0.972900000000     0          
C5       C      0.578800000000     0.883400000000     0.053100000000     0          
O10      O      0.689800000000     0.844400000000     0.733700000000     0          
C6       C      0.868700000000     0.847100000000     0.763900000000     0          
O11      O      0.686300000000     0.539800000000     0.814240000000     0          
C7       C      0.868300000000     0.477500000000     0.857400000000     0          
O12      O      0.234800000000     0.713500000000     0.039790000000     0          
O13      O      0.350400000000     0.659000000000     0.844430000000     0          
O14      O      0.235100000000     0.785900000000     0.895490000000     0          
O15      O      0.160700000000     0.640200000000     0.953130000000     0          
O18      O      0.609800000000     0.628000000000     0.688420000000     0          
O19      O      0.418100000000     0.745200000000     0.716130000000     0          
O20      O      0.505500000000     0.475300000000     0.837230000000     0          
O22      O      0.623300000000     0.766800000000     0.652230000000     0          
O23      O      0.355500000000     0.852600000000     0.788820000000     0          
O24      O      0.448600000000     0.915300000000     0.627000000000     0          
O25      O      0.495600000000     0.976400000000     0.699800000000     0          
O26      O      0.246000000000     0.851900000000     0.003640000000     0          
C8       C      0.758900000000     0.521300000000     0.104100000000     0          
H3       H      0.580700000000     0.944500000000     0.033960000000     0          
H4       H      0.523450000000     0.875960000000     0.096330000000     0          
H5       H      0.653870000000     0.849650000000     0.066950000000     0          
H6       H      0.886160000000     0.863830000000     0.710470000000     0          
H7       H      0.860940000000     0.896780000000     0.783270000000     0          
H8       H      0.930030000000     0.800300000000     0.786140000000     0          
H9       H      0.872380000000     0.441040000000     0.824790000000     0          
H10      H      0.932160000000     0.505850000000     0.843390000000     0          
H11      H      0.871580000000     0.441840000000     0.908280000000     0          
C9       C      0.206900000000     0.789800000000     0.046300000000     0          
H12      H      0.155480000000     0.804280000000     0.916520000000     0          
C10      C      0.089100000000     0.670600000000     0.905600000000     0          
C11      C      0.647700000000     0.690800000000     0.645500000000     0          
H13      H      0.414840000000     0.746100000000     0.664030000000     0          
C12      C      0.550300000000     0.410800000000     0.886100000000     0          
C13      C      0.451200000000     0.983700000000     0.642700000000     0          
H14      H      0.729340000000     0.561210000000     0.135050000000     0          
H15      H      0.758570000000     0.462290000000     0.133710000000     0          
H16      H      0.836570000000     0.525300000000     0.084000000000     0          
C14      C      0.122400000000     0.805600000000     0.108800000000     0          
O29      O      0.108200000000     0.715200000000     0.841000000000     0          
O30      O      0.109000000000     0.889700000000     0.771900000000     0          
O31      O      0.203000000000     0.860500000000     0.672600000000     0          
C15      C      0.973900000000     0.651400000000     0.929800000000     0          
C16      C      0.726700000000     0.674000000000     0.580800000000     0          
C17      C      0.557400000000     0.323600000000     0.874400000000     0          
C18      C      0.403400000000     0.070100000000     0.594400000000     0          
H17      H      0.111700000000     0.865360000000     0.110690000000     0          
H18      H      0.050170000000     0.795670000000     0.102060000000     0          
H19      H      0.149730000000     0.766300000000     0.154900000000     0          
C19      C      0.127000000000     0.911700000000     0.702400000000     0          
H20      H      0.980920000000     0.595050000000     0.965950000000     0          
H21      H      0.925730000000     0.695990000000     0.952140000000     0          
H22      H      0.939970000000     0.650610000000     0.887240000000     0          
C20      C      0.777500000000     0.591700000000     0.576300000000     0          
C21      C      0.747900000000     0.742800000000     0.523200000000     0          
H23      H      0.488630000000     0.324940000000     0.854010000000     0          
H24      H      0.623560000000     0.309860000000     0.840160000000     0          
H25      H      0.564500000000     0.279530000000     0.921520000000     0          
H26      H      0.442270000000     0.075840000000     0.544830000000     0          
H27      H      0.322360000000     0.076090000000     0.592490000000     0          
H28      H      0.413960000000     0.115090000000     0.614310000000     0          
C22      C      0.062400000000     0.994800000000     0.656100000000     0          
H29      H      0.767110000000     0.544170000000     0.616890000000     0          
C23      C      0.844000000000     0.577000000000     0.513300000000     0          
C24      C      0.811200000000     0.729300000000     0.459600000000     0          
H30      H      0.718620000000     0.800000000000     0.527530000000     0          
H31      H      0.036690000000     0.983580000000     0.614760000000     0          
H32      H      0.996750000000     0.019210000000     0.686020000000     0          
H33      H      0.111770000000     0.035680000000     0.637280000000     0          
H34      H      0.880740000000     0.519930000000     0.511310000000     0          
C25      C      0.856500000000     0.647000000000     0.452800000000     0          
H35      H      0.823580000000     0.777300000000     0.420010000000     0          
P1       P      0.936450000000     0.624460000000     0.368410000000     0          
C26      C      0.863300000000     0.549000000000     0.352400000000     0          
C27      C      0.879100000000     0.725100000000     0.300500000000     0          
C28      C      0.926200000000     0.491000000000     0.313500000000     0          
C29      C      0.751700000000     0.549100000000     0.374900000000     0          
C30      C      0.773300000000     0.744700000000     0.277100000000     0          
C31      C      0.945800000000     0.786900000000     0.275700000000     0          
H36      H      0.004960000000     0.487910000000     0.300920000000     0          
C32      C      0.875800000000     0.438000000000     0.292900000000     0          
C33      C      0.698700000000     0.496900000000     0.352700000000     0          
H37      H      0.710080000000     0.584520000000     0.405520000000     0          
H38      H      0.728360000000     0.702930000000     0.292680000000     0          
C34      C      0.731300000000     0.824500000000     0.231100000000     0          
C35      C      0.903300000000     0.866700000000     0.229300000000     0          
H39      H      0.019790000000     0.774000000000     0.290690000000     0          
H40      H      0.919060000000     0.399040000000     0.265830000000     0          
C36      C      0.759500000000     0.442200000000     0.312400000000     0          
H41      H      0.620060000000     0.499740000000     0.365840000000     0          
H42      H      0.657790000000     0.837480000000     0.215430000000     0          
C37      C      0.796600000000     0.885700000000     0.208000000000     0          
H43      H      0.948420000000     0.908330000000     0.212320000000     0          
C38      C      0.703500000000     0.387200000000     0.286800000000     0          
C39      C      0.746700000000     0.973200000000     0.161500000000     0          
C40      C      0.846100000000     0.933700000000     0.981800000000     0          
H44      H      0.842050000000     0.992660000000     0.983220000000     0          
H45      H      0.778850000000     0.932210000000     0.961270000000     0          
H46      H      0.849410000000     0.895310000000     0.031660000000     0          
C41      C      0.950300000000     0.904300000000     0.934500000000     0          
O33      O      0.953900000000     0.960400000000     0.868100000000     0          
H47      H      0.012840000000     0.943020000000     0.842580000000     0          
O34      O      0.019400000000     0.838400000000     0.951700000000     0          
C42      C      0.696500000000     0.106400000000     0.821900000000     0          
H48      H      0.657510000000     0.166330000000     0.801640000000     0          
H49      H      0.699070000000     0.095530000000     0.874900000000     0          
H50      H      0.773790000000     0.096090000000     0.798010000000     0          
C43      C      0.632800000000     0.046000000000     0.808300000000     0          
O35      O      0.571200000000     0.083400000000     0.753600000000     0          
H51      H      0.536850000000     0.048640000000     0.747940000000     0          
O36      O      0.641500000000     0.972000000000     0.843400000000     0          


