data_BESLAP

_audit_creation_method RASPA-1.0
_audit_creation_date 2020-11-2
_audit_author_name 'Rocio Bueno-Perez'

_cell_length_a    20.747
_cell_length_b    20.747
_cell_length_c    14.67
_cell_angle_alpha 90
_cell_angle_beta  135
_cell_angle_gamma 90
_cell_volume      4465.04

_symmetry_cell_setting          triclinic
_symmetry_space_group_name_Hall 'P 1'
_symmetry_space_group_name_H-M  'P 1'
_symmetry_Int_Tables_number     1

_symmetry_equiv_pos_as_xyz 'x,y,z'

loop_
_atom_site_label
_atom_site_type_symbol
_atom_site_fract_x
_atom_site_fract_y
_atom_site_fract_z
_atom_site_charge
Zr1      Zr     0.880670000000     0.599620000000     0.999990000000     0          
Zr2      Zr     0.119320000000     0.599600000000     0.238620000000     0          
O3       O      0.118400000000     0.540500000000     0.118100000000     0          
O4       O      0.861900000000     0.668200000000     0.861500000000     0          
O5       O      0.000000000000     0.540800000000     0.118500000000     0          
O6       O      0.000000000000     0.668400000000     0.138300000000     0          
O7       O      0.906500000000     0.427500000000     0.813300000000     0          
O8       O      0.593700000000     0.270200000000     0.999600000000     0          
O9       O      0.672000000000     0.193000000000     0.999700000000     0          
O10      O      0.906800000000     0.427400000000     0.999700000000     0          
O11      O      0.829400000000     0.506200000000     0.000000000000     0          
C12      C      0.651800000000     0.252300000000     0.000400000000     0          
O13      O      0.829500000000     0.506700000000     0.657400000000     0          
C14      C      0.797700000000     0.398000000000     0.594900000000     0          
C15      C      0.848000000000     0.449600000000     0.696800000000     0          
C16      C      0.703300000000     0.302200000000     0.000300000000     0          
C17      C      0.848700000000     0.448900000000     0.000300000000     0          
O18      O      0.735500000000     0.600700000000     0.657200000000     0          
O19      O      0.735100000000     0.600000000000     0.813300000000     0          
C20      C      0.696600000000     0.600500000000     0.696400000000     0          
C21      C      0.594300000000     0.601800000000     0.594200000000     0          
O22      O      0.672700000000     0.193400000000     0.343900000000     0          
C23      C      0.816400000000     0.332500000000     0.633000000000     0          
C24      C      0.730300000000     0.414900000000     0.464100000000     0          
C25      C      0.688800000000     0.363400000000     0.376600000000     0          
C26      C      0.758700000000     0.287700000000     0.527300000000     0          
O27      O      0.593700000000     0.270000000000     0.187800000000     0          
C28      C      0.703700000000     0.302900000000     0.406600000000     0          
C29      C      0.548500000000     0.599300000000     0.627300000000     0          
C30      C      0.764500000000     0.285400000000     0.997000000000     0          
C31      C      0.548100000000     0.599300000000     0.468000000000     0          
C32      C      0.690500000000     0.366000000000     0.004000000000     0          
C33      C      0.732500000000     0.411800000000     0.995000000000     0          
C34      C      0.797800000000     0.396500000000     0.001100000000     0          
C35      C      0.650800000000     0.252600000000     0.302700000000     0          
C36      C      0.817600000000     0.334000000000     0.001000000000     0          
C37      C      0.581000000000     0.560000000000     0.758000000000     0          
C38      C      0.624000000000     0.500000000000     0.921000000000     0          
H39      H      0.608000000000     0.448100000000     0.907300000000     0          
H40      H      0.599200000000     0.609700000000     0.794800000000     0          
O41      O      0.503000000000     0.541000000000     0.732000000000     0          
O42      O      0.544000000000     0.538000000000     0.862000000000     0          
O43      O      0.650000000000     0.517000000000     0.859000000000     0          
C44      C      0.850000000000     0.324000000000     0.924000000000     0          
C45      C      0.891000000000     0.293000000000     0.823000000000     0          
H46      H      0.868400000000     0.246900000000     0.772500000000     0          
H47      H      0.886300000000     0.368900000000     0.972000000000     0          
O48      O      0.914000000000     0.272000000000     0.992000000000     0          
O49      O      0.964000000000     0.285000000000     0.960000000000     0          
O50      O      0.819000000000     0.322000000000     0.800000000000     0          
C51      C      0.673000000000     0.487000000000     0.417000000000     0          
C52      C      0.663000000000     0.586000000000     0.346000000000     0          
H53      H      0.605500000000     0.466000000000     0.341400000000     0          
O54      O      0.618000000000     0.582000000000     0.386000000000     0          
O55      O      0.695000000000     0.523000000000     0.359000000000     0          
O56      O      0.671000000000     0.534000000000     0.485000000000     0          
O57      O      0.077900000000     0.598800000000     0.342800000000     0          
O58      O      0.922200000000     0.600700000000     0.187000000000     0          
C59      C      0.999900000000     0.600100000000     0.303100000000     0          
C60      C      0.999600000000     0.601200000000     0.405600000000     0          
C61      C      0.079200000000     0.602400000000     0.531300000000     0          
C62      C      0.921200000000     0.594600000000     0.373100000000     0          
H63      H      0.917400000000     0.325100000000     0.795800000000     0          
H64      H      0.721700000000     0.619400000000     0.407400000000     0          
H65      H      0.612200000000     0.602300000000     0.245400000000     0          
O66      O      0.021000000000     0.313000000000     0.863000000000     0          
O67      O      0.052000000000     0.253000000000     0.856000000000     0          
C68      C      0.586000000000     0.387000000000     0.942000000000     0          
C69      C      0.444000000000     0.413000000000     0.848000000000     0          
H70      H      0.408000000000     0.454300000000     0.781400000000     0          
H71      H      0.398000000000     0.381800000000     0.839900000000     0          
H72      H      0.607200000000     0.347900000000     0.007800000000     0          
O73      O      0.587000000000     0.446000000000     0.994000000000     0          
O74      O      0.512000000000     0.434000000000     0.979000000000     0          
O75      O      0.491000000000     0.379000000000     0.825000000000     0          
Zr76     Zr     0.380670000000     0.099620000000     0.999990000000     0          
Zr77     Zr     0.619320000000     0.099600000000     0.238620000000     0          
O78      O      0.618400000000     0.040500000000     0.118100000000     0          
O79      O      0.361900000000     0.168200000000     0.861500000000     0          
O80      O      0.500000000000     0.040800000000     0.118500000000     0          
O81      O      0.500000000000     0.168400000000     0.138300000000     0          
O82      O      0.406500000000     0.927500000000     0.813300000000     0          
O83      O      0.093700000000     0.770200000000     0.999600000000     0          
O84      O      0.172000000000     0.693000000000     0.999700000000     0          
O85      O      0.406800000000     0.927400000000     0.999700000000     0          
O86      O      0.329400000000     0.006200000000     0.000000000000     0          
C87      C      0.151800000000     0.752300000000     0.000400000000     0          
O88      O      0.329500000000     0.006700000000     0.657400000000     0          
C89      C      0.297700000000     0.898000000000     0.594900000000     0          
C90      C      0.348000000000     0.949600000000     0.696800000000     0          
C91      C      0.203300000000     0.802200000000     0.000300000000     0          
C92      C      0.348700000000     0.948900000000     0.000300000000     0          
O93      O      0.235500000000     0.100700000000     0.657200000000     0          
O94      O      0.235100000000     0.100000000000     0.813300000000     0          
C95      C      0.196600000000     0.100500000000     0.696400000000     0          
C96      C      0.094300000000     0.101800000000     0.594200000000     0          
O97      O      0.172700000000     0.693400000000     0.343900000000     0          
C98      C      0.316400000000     0.832500000000     0.633000000000     0          
C99      C      0.230300000000     0.914900000000     0.464100000000     0          
C100     C      0.188800000000     0.863400000000     0.376600000000     0          
C101     C      0.258700000000     0.787700000000     0.527300000000     0          
O102     O      0.093700000000     0.770000000000     0.187800000000     0          
C103     C      0.203700000000     0.802900000000     0.406600000000     0          
C104     C      0.048500000000     0.099300000000     0.627300000000     0          
C105     C      0.264500000000     0.785400000000     0.997000000000     0          
C106     C      0.048100000000     0.099300000000     0.468000000000     0          
C107     C      0.190500000000     0.866000000000     0.004000000000     0          
C108     C      0.232500000000     0.911800000000     0.995000000000     0          
C109     C      0.297800000000     0.896500000000     0.001100000000     0          
C110     C      0.150800000000     0.752600000000     0.302700000000     0          
C111     C      0.317600000000     0.834000000000     0.001000000000     0          
C112     C      0.081000000000     0.060000000000     0.758000000000     0          
C113     C      0.124000000000     0.000000000000     0.921000000000     0          
H114     H      0.108000000000     0.948100000000     0.907300000000     0          
H115     H      0.099200000000     0.109700000000     0.794800000000     0          
O116     O      0.003000000000     0.041000000000     0.732000000000     0          
O117     O      0.044000000000     0.038000000000     0.862000000000     0          
O118     O      0.150000000000     0.017000000000     0.859000000000     0          
O119     O      0.577900000000     0.098800000000     0.342800000000     0          
O120     O      0.422200000000     0.100700000000     0.187000000000     0          
C121     C      0.499900000000     0.100100000000     0.303100000000     0          
C122     C      0.499600000000     0.101200000000     0.405600000000     0          
C123     C      0.579200000000     0.102400000000     0.531300000000     0          
C124     C      0.421200000000     0.094600000000     0.373100000000     0          
C125     C      0.081000000000     0.146000000000     0.411000000000     0          
C126     C      0.095000000000     0.135000000000     0.272000000000     0          
H127     H      0.156200000000     0.113700000000     0.303500000000     0          
H128     H      0.038600000000     0.137400000000     0.166400000000     0          
H129     H      0.017700000000     0.172500000000     0.357300000000     0          
O130     O      0.148000000000     0.190000000000     0.443000000000     0          
O131     O      0.111000000000     0.200000000000     0.316000000000     0          
O132     O      0.070000000000     0.101000000000     0.327000000000     0          
H133     H      0.221200000000     0.949200000000     0.043600000000     0          
C134     C      0.425000000000     0.803000000000     0.759000000000     0          
C135     C      0.496000000000     0.708000000000     0.850000000000     0          
H136     H      0.526900000000     0.695900000000     0.946400000000     0          
H137     H      0.406700000000     0.804700000000     0.668400000000     0          
O138     O      0.521000000000     0.813000000000     0.863000000000     0          
O139     O      0.552000000000     0.753000000000     0.856000000000     0          
O140     O      0.412000000000     0.740000000000     0.780000000000     0          
C141     C      0.086000000000     0.887000000000     0.942000000000     0          
C142     C      0.944000000000     0.913000000000     0.848000000000     0          
H143     H      0.908000000000     0.954300000000     0.781400000000     0          
H144     H      0.898000000000     0.881800000000     0.839900000000     0          
H145     H      0.107200000000     0.847900000000     0.007800000000     0          
O146     O      0.087000000000     0.946000000000     0.994000000000     0          
O147     O      0.012000000000     0.934000000000     0.979000000000     0          
O148     O      0.991000000000     0.879000000000     0.825000000000     0          
H149     H      0.489500000000     0.665700000000     0.799000000000     0          
Zr150    Zr     0.119330000000     0.599620000000     0.000010000000     0          
Zr151    Zr     0.880680000000     0.599600000000     0.761380000000     0          
O152     O      0.881600000000     0.540500000000     0.881900000000     0          
O153     O      0.138100000000     0.668200000000     0.138500000000     0          
O154     O      0.000000000000     0.540800000000     0.881500000000     0          
O155     O      0.000000000000     0.668400000000     0.861700000000     0          
O156     O      0.093500000000     0.427500000000     0.186700000000     0          
O157     O      0.406300000000     0.270200000000     0.000400000000     0          
O158     O      0.328000000000     0.193000000000     0.000300000000     0          
O159     O      0.093200000000     0.427400000000     0.000300000000     0          
O160     O      0.170600000000     0.506200000000     0.000000000000     0          
C161     C      0.348200000000     0.252300000000     0.999600000000     0          
O162     O      0.170500000000     0.506700000000     0.342600000000     0          
C163     C      0.202300000000     0.398000000000     0.405100000000     0          
C164     C      0.152000000000     0.449600000000     0.303200000000     0          
C165     C      0.296700000000     0.302200000000     0.999700000000     0          
C166     C      0.151300000000     0.448900000000     0.999700000000     0          
O167     O      0.264500000000     0.600700000000     0.342800000000     0          
O168     O      0.264900000000     0.600000000000     0.186700000000     0          
C169     C      0.303400000000     0.600500000000     0.303600000000     0          
C170     C      0.405700000000     0.601800000000     0.405800000000     0          
O171     O      0.327300000000     0.193400000000     0.656100000000     0          
C172     C      0.183600000000     0.332500000000     0.367000000000     0          
C173     C      0.269700000000     0.414900000000     0.535900000000     0          
C174     C      0.311200000000     0.363400000000     0.623400000000     0          
C175     C      0.241300000000     0.287700000000     0.472700000000     0          
O176     O      0.406300000000     0.270000000000     0.812200000000     0          
C177     C      0.296300000000     0.302900000000     0.593400000000     0          
C178     C      0.451500000000     0.599300000000     0.372700000000     0          
C179     C      0.235500000000     0.285400000000     0.003000000000     0          
C180     C      0.451900000000     0.599300000000     0.532000000000     0          
C181     C      0.309500000000     0.366000000000     0.996000000000     0          
C182     C      0.267500000000     0.411800000000     0.005000000000     0          
C183     C      0.202200000000     0.396500000000     0.998900000000     0          
C184     C      0.349200000000     0.252600000000     0.697300000000     0          
C185     C      0.182400000000     0.334000000000     0.999000000000     0          
C186     C      0.150000000000     0.324000000000     0.076000000000     0          
C187     C      0.109000000000     0.293000000000     0.177000000000     0          
H188     H      0.131600000000     0.246900000000     0.227500000000     0          
H189     H      0.113700000000     0.368900000000     0.028000000000     0          
O190     O      0.086000000000     0.272000000000     0.008000000000     0          
O191     O      0.036000000000     0.285000000000     0.040000000000     0          
O192     O      0.181000000000     0.322000000000     0.200000000000     0          
C193     C      0.327000000000     0.487000000000     0.583000000000     0          
C194     C      0.337000000000     0.586000000000     0.654000000000     0          
H195     H      0.394500000000     0.466000000000     0.658600000000     0          
O196     O      0.382000000000     0.582000000000     0.614000000000     0          
O197     O      0.305000000000     0.523000000000     0.641000000000     0          
O198     O      0.329000000000     0.534000000000     0.515000000000     0          
O199     O      0.922100000000     0.598800000000     0.657200000000     0          
O200     O      0.077800000000     0.600700000000     0.813000000000     0          
C201     C      0.000100000000     0.600100000000     0.696900000000     0          
C202     C      0.000400000000     0.601200000000     0.594400000000     0          
C203     C      0.920800000000     0.602400000000     0.468700000000     0          
C204     C      0.078800000000     0.594600000000     0.626900000000     0          
H205     H      0.082600000000     0.325100000000     0.204200000000     0          
H206     H      0.278300000000     0.619400000000     0.592600000000     0          
H207     H      0.387800000000     0.602300000000     0.754600000000     0          
C208     C      0.178000000000     0.558000000000     0.762000000000     0          
C209     C      0.279000000000     0.501000000000     0.947000000000     0          
H210     H      0.148400000000     0.523500000000     0.685500000000     0          
O211     O      0.269000000000     0.573000000000     0.825000000000     0          
O212     O      0.311000000000     0.512000000000     0.887000000000     0          
O213     O      0.191000000000     0.528000000000     0.862000000000     0          
H214     H      0.278800000000     0.449200000000     0.956400000000     0          
H215     H      0.973100000000     0.195900000000     0.053600000000     0          
C216     C      0.414000000000     0.387000000000     0.058000000000     0          
C217     C      0.556000000000     0.413000000000     0.152000000000     0          
H218     H      0.592000000000     0.454300000000     0.218600000000     0          
H219     H      0.602000000000     0.381800000000     0.160100000000     0          
H220     H      0.392800000000     0.347900000000     0.992200000000     0          
O221     O      0.413000000000     0.446000000000     0.006000000000     0          
O222     O      0.488000000000     0.434000000000     0.021000000000     0          
O223     O      0.509000000000     0.379000000000     0.175000000000     0          
Zr224    Zr     0.619330000000     0.099620000000     0.000010000000     0          
Zr225    Zr     0.380680000000     0.099600000000     0.761380000000     0          
O226     O      0.381600000000     0.040500000000     0.881900000000     0          
O227     O      0.638100000000     0.168200000000     0.138500000000     0          
O228     O      0.500000000000     0.040800000000     0.881500000000     0          
O229     O      0.500000000000     0.168400000000     0.861700000000     0          
O230     O      0.593500000000     0.927500000000     0.186700000000     0          
O231     O      0.906300000000     0.770200000000     0.000400000000     0          
O232     O      0.828000000000     0.693000000000     0.000300000000     0          
O233     O      0.593200000000     0.927400000000     0.000300000000     0          
O234     O      0.670600000000     0.006200000000     0.000000000000     0          
C235     C      0.848200000000     0.752300000000     0.999600000000     0          
O236     O      0.670500000000     0.006700000000     0.342600000000     0          
C237     C      0.702300000000     0.898000000000     0.405100000000     0          
C238     C      0.652000000000     0.949600000000     0.303200000000     0          
C239     C      0.796700000000     0.802200000000     0.999700000000     0          
C240     C      0.651300000000     0.948900000000     0.999700000000     0          
O241     O      0.764500000000     0.100700000000     0.342800000000     0          
O242     O      0.764900000000     0.100000000000     0.186700000000     0          
C243     C      0.803400000000     0.100500000000     0.303600000000     0          
C244     C      0.905700000000     0.101800000000     0.405800000000     0          
O245     O      0.827300000000     0.693400000000     0.656100000000     0          
C246     C      0.683600000000     0.832500000000     0.367000000000     0          
C247     C      0.769700000000     0.914900000000     0.535900000000     0          
C248     C      0.811200000000     0.863400000000     0.623400000000     0          
C249     C      0.741300000000     0.787700000000     0.472700000000     0          
O250     O      0.906300000000     0.770000000000     0.812200000000     0          
C251     C      0.796300000000     0.802900000000     0.593400000000     0          
C252     C      0.951500000000     0.099300000000     0.372700000000     0          
C253     C      0.735500000000     0.785400000000     0.003000000000     0          
C254     C      0.951900000000     0.099300000000     0.532000000000     0          
C255     C      0.809500000000     0.866000000000     0.996000000000     0          
C256     C      0.767500000000     0.911800000000     0.005000000000     0          
C257     C      0.702200000000     0.896500000000     0.998900000000     0          
C258     C      0.849200000000     0.752600000000     0.697300000000     0          
C259     C      0.682400000000     0.834000000000     0.999000000000     0          
H260     H      0.613700000000     0.868900000000     0.028000000000     0          
O261     O      0.422100000000     0.098800000000     0.657200000000     0          
O262     O      0.577800000000     0.100700000000     0.813000000000     0          
C263     C      0.500100000000     0.100100000000     0.696900000000     0          
C264     C      0.500400000000     0.101200000000     0.594400000000     0          
C265     C      0.420800000000     0.102400000000     0.468700000000     0          
C266     C      0.578800000000     0.094600000000     0.626900000000     0          
C267     C      0.328000000000     0.138000000000     0.423000000000     0          
C268     C      0.194000000000     0.192000000000     0.289000000000     0          
H269     H      0.180400000000     0.229200000000     0.223600000000     0          
H270     H      0.131400000000     0.177200000000     0.261300000000     0          
H271     H      0.325200000000     0.108100000000     0.481400000000     0          
O272     O      0.341000000000     0.204000000000     0.464000000000     0          
O273     O      0.254000000000     0.215000000000     0.418000000000     0          
O274     O      0.239000000000     0.139000000000     0.293000000000     0          
H275     H      0.778800000000     0.949200000000     0.956400000000     0          
C276     C      0.575000000000     0.803000000000     0.241000000000     0          
C277     C      0.504000000000     0.708000000000     0.150000000000     0          
H278     H      0.473100000000     0.695900000000     0.053600000000     0          
H279     H      0.593300000000     0.804700000000     0.331600000000     0          
O280     O      0.479000000000     0.813000000000     0.137000000000     0          
O281     O      0.448000000000     0.753000000000     0.144000000000     0          
O282     O      0.588000000000     0.740000000000     0.220000000000     0          
C283     C      0.914000000000     0.887000000000     0.058000000000     0          
C284     C      0.056000000000     0.913000000000     0.152000000000     0          
H285     H      0.092000000000     0.954300000000     0.218600000000     0          
H286     H      0.102000000000     0.881800000000     0.160100000000     0          
H287     H      0.892800000000     0.847900000000     0.992200000000     0          
O288     O      0.913000000000     0.946000000000     0.006000000000     0          
O289     O      0.988000000000     0.934000000000     0.021000000000     0          
O290     O      0.009000000000     0.879000000000     0.175000000000     0          
H291     H      0.510500000000     0.665700000000     0.201000000000     0          
Zr292    Zr     0.000000000000     0.480280000000     0.000000000000     0          
Zr293    Zr     0.000000000000     0.718930000000     0.000000000000     0          
Zr294    Zr     0.500000000000     0.980280000000     0.000000000000     0          
Zr295    Zr     0.500000000000     0.218930000000     0.000000000000     0          
H296     H      0.412780000000     0.597130000000     0.266670000000     0          
H297     H      0.586970000000     0.597230000000     0.439650000000     0          
H298     H      0.413030000000     0.597230000000     0.560350000000     0          
H299     H      0.355590000000     0.082810000000     0.269330000000     0          
H300     H      0.646050000000     0.109640000000     0.559880000000     0          
H301     H      0.644410000000     0.082810000000     0.730670000000     0          
H302     H      0.501440000000     0.045170000000     0.697120000000     0          
H303     H      0.207200000000     0.450020000000     0.303710000000     0          
H304     H      0.126970000000     0.319350000000     0.260510000000     0          
H305     H      0.240620000000     0.234440000000     0.452920000000     0          
H306     H      0.363060000000     0.373300000000     0.731410000000     0          
H307     H      0.292800000000     0.950020000000     0.696290000000     0          
H308     H      0.212420000000     0.967760000000     0.434840000000     0          
H309     H      0.136940000000     0.873300000000     0.268590000000     0          
H310     H      0.259380000000     0.734440000000     0.547080000000     0          
H311     H      0.707200000000     0.950020000000     0.303710000000     0          
H312     H      0.787580000000     0.967760000000     0.565160000000     0          
H313     H      0.863060000000     0.873300000000     0.731410000000     0          
H314     H      0.740620000000     0.734440000000     0.452920000000     0          
H315     H      0.792800000000     0.450020000000     0.696290000000     0          
H316     H      0.873030000000     0.319350000000     0.739490000000     0          
H317     H      0.759380000000     0.234440000000     0.547080000000     0          
H318     H      0.636940000000     0.373300000000     0.268590000000     0          
H319     H      0.195500000000     0.045560000000     0.694810000000     0          
H320     H      0.093240000000     0.156740000000     0.593160000000     0          
H321     H      0.912780000000     0.097130000000     0.266670000000     0          
H322     H      0.060400000000     0.150980000000     0.662780000000     0          
H323     H      0.913030000000     0.097230000000     0.560350000000     0          
H324     H      0.001440000000     0.545170000000     0.697120000000     0          
H325     H      0.146050000000     0.609640000000     0.559880000000     0          
H326     H      0.853950000000     0.609640000000     0.440120000000     0          
H327     H      0.855590000000     0.582810000000     0.269330000000     0          


