data_BOHJUF

_audit_creation_method RASPA-1.0
_audit_creation_date 2020-4-3
_audit_author_name 'Rocio Bueno-Perez'

_cell_length_a    17.809
_cell_length_b    17.831
_cell_length_c    17.812
_cell_angle_alpha 90.031
_cell_angle_beta  90.182
_cell_angle_gamma 89.999
_cell_volume      5656.21

_symmetry_cell_setting          triclinic
_symmetry_space_group_name_Hall 'P 1'
_symmetry_space_group_name_H-M  'P 1'
_symmetry_Int_Tables_number     1

_symmetry_equiv_pos_as_xyz 'x,y,z'

loop_
_atom_site_label
_atom_site_type_symbol
_atom_site_fract_x
_atom_site_fract_y
_atom_site_fract_z
_atom_site_charge
Zr1      Zr     0.637770000000     0.510400000000     0.510990000000     0          
Zr2      Zr     0.137680000000     0.489590000000     0.011180000000     0          
Zr3      Zr     0.862390000000     0.989460000000     0.511110000000     0          
Zr4      Zr     0.489070000000     0.637700000000     0.510560000000     0          
Zr5      Zr     0.010610000000     0.011060000000     0.637800000000     0          
Zr6      Zr     0.989400000000     0.511040000000     0.137720000000     0          
Zr7      Zr     0.010980000000     0.862350000000     0.510470000000     0          
Zr8      Zr     0.989050000000     0.362360000000     0.010480000000     0          
Zr9      Zr     0.489500000000     0.488770000000     0.637740000000     0          
C1       C      0.998000000000     0.245000000000     0.788000000000     0          
H1       H      0.999400000000     0.195200000000     0.806700000000     0          
O1       O      0.125600000000     0.480400000000     0.808300000000     0          
O2       O      0.811100000000     0.991700000000     0.624000000000     0          
O3       O      0.059600000000     0.434300000000     0.950800000000     0          
O4       O      0.583000000000     0.420000000000     0.579000000000     0          
O5       O      0.376900000000     0.689700000000     0.508700000000     0          
O6       O      0.949400000000     0.939800000000     0.568500000000     0          
O7       O      0.921500000000     0.910900000000     0.434100000000     0          
O8       O      0.291500000000     0.589100000000     0.492700000000     0          
O9       O      0.410800000000     0.565100000000     0.577600000000     0          
O10      O      0.052400000000     0.441300000000     0.067000000000     0          
O11      O      0.549200000000     0.560100000000     0.566400000000     0          
O12      O      0.191500000000     0.376500000000     0.021300000000     0          
O13      O      0.090400000000     0.934500000000     0.578200000000     0          
O14      O      0.690000000000     0.991700000000     0.875700000000     0          
O15      O      0.490300000000     0.376000000000     0.691100000000     0          
O16      O      0.509100000000     0.291100000000     0.590300000000     0          
O17      O      0.492300000000     0.124300000000     0.810200000000     0          
O18      O      0.008500000000     0.124700000000     0.688800000000     0          
O19      O      0.992800000000     0.291200000000     0.909500000000     0          
O20      O      0.290400000000     0.480100000000     0.591000000000     0          
O21      O      0.208400000000     0.591000000000     0.009400000000     0          
O22      O      0.376900000000     0.810900000000     0.992200000000     0          
O23      O      0.122900000000     0.689700000000     0.991400000000     0          
O24      O      0.308600000000     0.124700000000     0.019200000000     0          
O25      O      0.408800000000     0.210500000000     0.018300000000     0          
O26      O      0.509700000000     0.209100000000     0.910300000000     0          
O27      O      0.080000000000     0.582000000000     0.079000000000     0          
O28      O      0.290300000000     0.908200000000     0.007300000000     0          
O29      O      0.590200000000     0.007900000000     0.791200000000     0          
O30      O      0.006900000000     0.376000000000     0.810200000000     0          
O31      O      0.909800000000     0.008500000000     0.709300000000     0          
O32      O      0.377300000000     0.480000000000     0.692300000000     0          
O33      O      0.991000000000     0.209700000000     0.588700000000     0          
C2       C      0.504000000000     0.309200000000     0.661700000000     0          
C3       C      0.500000000000     0.244500000000     0.711800000000     0          
H2       H      0.496200000000     0.195400000000     0.691600000000     0          
C4       C      0.995000000000     0.192000000000     0.659000000000     0          
O34      O      0.090900000000     0.289500000000     0.019100000000     0          
C5       C      0.841100000000     0.002000000000     0.690000000000     0          
C6       C      0.660000000000     0.005000000000     0.810000000000     0          
C7       C      0.711900000000     0.001000000000     0.746000000000     0          
H3       H      0.692600000000     0.998700000000     0.696400000000     0          
C8       C      0.502000000000     0.254500000000     0.786900000000     0          
H4       H      0.501200000000     0.304300000000     0.806000000000     0          
C9       C      0.997000000000     0.309000000000     0.842000000000     0          
O35      O      0.122000000000     0.810000000000     0.507200000000     0          
C10      C      0.190800000000     0.840200000000     0.496000000000     0          
C11      C      0.998000000000     0.256000000000     0.710000000000     0          
H5       H      0.000700000000     0.305900000000     0.690800000000     0          
C12      C      0.256700000000     0.789100000000     0.497000000000     0          
H6       H      0.306400000000     0.808400000000     0.497800000000     0          
O36      O      0.209700000000     0.481200000000     0.908200000000     0          
C13      C      0.213000000000     0.246700000000     0.015000000000     0          
H7       H      0.193500000000     0.197400000000     0.011900000000     0          
C14      C      0.255600000000     0.481000000000     0.788000000000     0          
H8       H      0.305400000000     0.478600000000     0.807000000000     0          
C15      C      0.189600000000     0.480000000000     0.842000000000     0          
C16      C      0.788200000000     0.000000000000     0.758000000000     0          
H9       H      0.808000000000     0.997900000000     0.807600000000     0          
O37      O      0.559400000000     0.566600000000     0.450700000000     0          
O38      O      0.920000000000     0.082000000000     0.581000000000     0          
C17      C      0.244300000000     0.789200000000     0.000000000000     0          
H10      H      0.194700000000     0.808600000000     0.996500000000     0          
C18      C      0.310000000000     0.841600000000     0.003000000000     0          
C19      C      0.312100000000     0.483000000000     0.661000000000     0          
C20      C      0.160000000000     0.310800000000     0.020000000000     0          
C21      C      0.245000000000     0.485000000000     0.714000000000     0          
H11      H      0.195500000000     0.488000000000     0.694500000000     0          
O39      O      0.208900000000     0.911600000000     0.491800000000     0          
C22      C      0.243000000000     0.710300000000     0.499000000000     0          
H12      H      0.193400000000     0.691000000000     0.500300000000     0          
C23      C      0.341000000000     0.189300000000     0.018000000000     0          
C24      C      0.308000000000     0.659900000000     0.497000000000     0          
C25      C      0.287000000000     0.254500000000     0.016000000000     0          
H13      H      0.306600000000     0.303900000000     0.014800000000     0          
C26      C      0.188000000000     0.658000000000     0.004000000000     0          
C27      C      0.255400000000     0.712400000000     0.002000000000     0          
H14      H      0.305000000000     0.692800000000     0.001300000000     0          
O40      O      0.934600000000     0.450100000000     0.059400000000     0          
C28      C      0.504000000000     0.192000000000     0.840400000000     0          
Zr10     Zr     0.637670000000     0.989520000000     0.989080000000     0          
Zr11     Zr     0.511070000000     0.137690000000     0.010460000000     0          
Zr12     Zr     0.510670000000     0.989000000000     0.137630000000     0          
O41      O      0.439000000000     0.940000000000     0.062000000000     0          
O42      O      0.449600000000     0.060700000000     0.066700000000     0          
O43      O      0.591000000000     0.065800000000     0.077900000000     0          
O44      O      0.557000000000     0.933800000000     0.050500000000     0          
O45      O      0.809800000000     0.510000000000     0.876600000000     0          
O46      O      0.689100000000     0.506400000000     0.623900000000     0          
O47      O      0.590400000000     0.490900000000     0.709400000000     0          
C29      C      0.660300000000     0.494000000000     0.691000000000     0          
C30      C      0.787600000000     0.500100000000     0.744600000000     0          
H15      H      0.807300000000     0.501600000000     0.695100000000     0          
C31      C      0.714000000000     0.500000000000     0.754000000000     0          
H16      H      0.694100000000     0.503100000000     0.803300000000     0          
O48      O      0.909500000000     0.491600000000     0.789200000000     0          
C32      C      0.840000000000     0.498000000000     0.809000000000     0          
O49      O      0.691200000000     0.622300000000     0.520500000000     0          
O50      O      0.807300000000     0.875800000000     0.519900000000     0          
O51      O      0.590300000000     0.711200000000     0.518800000000     0          
O52      O      0.910100000000     0.789900000000     0.518900000000     0          
C33      C      0.842000000000     0.809700000000     0.518000000000     0          
C34      C      0.660000000000     0.690000000000     0.516000000000     0          
C35      C      0.786000000000     0.745000000000     0.519000000000     0          
H17      H      0.805000000000     0.695400000000     0.520100000000     0          
C36      C      0.712000000000     0.755000000000     0.518000000000     0          
H18      H      0.691600000000     0.804200000000     0.518300000000     0          
O53      O      0.479000000000     0.807000000000     0.878300000000     0          
O54      O      0.479800000000     0.690200000000     0.623200000000     0          
O55      O      0.481000000000     0.907800000000     0.789800000000     0          
C37      C      0.483000000000     0.786000000000     0.746000000000     0          
H19      H      0.483500000000     0.805800000000     0.696000000000     0          
O56      O      0.481700000000     0.591800000000     0.711400000000     0          
C38      C      0.482000000000     0.661000000000     0.688700000000     0          
C39      C      0.485000000000     0.714000000000     0.755000000000     0          
H20      H      0.487300000000     0.693800000000     0.804300000000     0          
C40      C      0.480000000000     0.841000000000     0.810000000000     0          
O57      O      0.020500000000     0.807400000000     0.623700000000     0          
O58      O      0.020600000000     0.908800000000     0.710700000000     0          
O59      O      0.016600000000     0.591300000000     0.789100000000     0          
O60      O      0.019300000000     0.691400000000     0.877100000000     0          
C41      C      0.015000000000     0.712000000000     0.745000000000     0          
H21      H      0.010700000000     0.691600000000     0.696300000000     0          
C42      C      0.018000000000     0.661000000000     0.810300000000     0          
C43      C      0.017000000000     0.838800000000     0.689000000000     0          
C44      C      0.018000000000     0.788000000000     0.755000000000     0          
H22      H      0.021200000000     0.808100000000     0.803800000000     0          
O61      O      0.788900000000     0.981300000000     0.410600000000     0          
O62      O      0.711100000000     0.981900000000     0.090200000000     0          
O63      O      0.877100000000     0.981300000000     0.310000000000     0          
O64      O      0.624100000000     0.979200000000     0.191600000000     0          
C45      C      0.744000000000     0.982000000000     0.286000000000     0          
H23      H      0.693800000000     0.977100000000     0.304500000000     0          
C46      C      0.811500000000     0.985000000000     0.340700000000     0          
C47      C      0.757000000000     0.986000000000     0.215000000000     0          
H24      H      0.805900000000     0.992500000000     0.195700000000     0          
C48      C      0.688700000000     0.979000000000     0.163000000000     0          
O109?    O      0.909500000000     0.434400000000     0.078200000000     0          
O111?    O      0.560000000000     0.441000000000     0.559000000000     0          
O112?    O      0.578900000000     0.591300000000     0.433200000000     0          
O113?    O      0.436400000000     0.547200000000     0.558900000000     0          
O114?    O      0.566000000000     0.579600000000     0.590000000000     0          
O115?    O      0.939000000000     0.060000000000     0.561000000000     0          
O116?    O      0.066200000000     0.950200000000     0.560200000000     0          
O117?    O      0.941400000000     0.932700000000     0.453900000000     0          
O118?    O      0.931000000000     0.923000000000     0.590000000000     0          
O119?    O      0.566900000000     0.048800000000     0.058600000000     0          
O120?    O      0.578300000000     0.910000000000     0.068000000000     0          
O121?    O      0.420000000000     0.919000000000     0.079000000000     0          
O122?    O      0.433100000000     0.078000000000     0.091000000000     0          
O123?    O      0.060000000000     0.558000000000     0.061000000000     0          
O124?    O      0.064900000000     0.422900000000     0.092000000000     0          
O125?    O      0.078400000000     0.411600000000     0.934200000000     0          
Zr1      Zr     0.362230000000     0.489600000000     0.489010000000     0          
Zr2      Zr     0.862320000000     0.510410000000     0.988820000000     0          
Zr3      Zr     0.137610000000     0.010540000000     0.488890000000     0          
Zr4      Zr     0.510930000000     0.362300000000     0.489440000000     0          
Zr5      Zr     0.989390000000     0.988940000000     0.362200000000     0          
Zr6      Zr     0.010600000000     0.488960000000     0.862280000000     0          
Zr7      Zr     0.989020000000     0.137650000000     0.489530000000     0          
Zr8      Zr     0.010950000000     0.637640000000     0.989520000000     0          
Zr9      Zr     0.510500000000     0.511230000000     0.362260000000     0          
C1       C      0.002000000000     0.755000000000     0.212000000000     0          
H1       H      0.000600000000     0.804800000000     0.193300000000     0          
O1       O      0.874400000000     0.519600000000     0.191700000000     0          
O2       O      0.188900000000     0.008300000000     0.376000000000     0          
O3       O      0.940400000000     0.565700000000     0.049200000000     0          
O4       O      0.417000000000     0.580000000000     0.421000000000     0          
O5       O      0.623100000000     0.310300000000     0.491300000000     0          
O6       O      0.050600000000     0.060200000000     0.431500000000     0          
O7       O      0.078500000000     0.089100000000     0.565900000000     0          
O8       O      0.708500000000     0.410900000000     0.507300000000     0          
O9       O      0.589200000000     0.434900000000     0.422400000000     0          
O10      O      0.947600000000     0.558700000000     0.933000000000     0          
O11      O      0.450800000000     0.439900000000     0.433600000000     0          
O12      O      0.808500000000     0.623500000000     0.978700000000     0          
O13      O      0.909600000000     0.065500000000     0.421800000000     0          
O14      O      0.310000000000     0.008300000000     0.124300000000     0          
O15      O      0.509700000000     0.624000000000     0.308900000000     0          
O16      O      0.490900000000     0.708900000000     0.409700000000     0          
O17      O      0.507700000000     0.875700000000     0.189800000000     0          
O18      O      0.991500000000     0.875300000000     0.311200000000     0          
O19      O      0.007200000000     0.708800000000     0.090500000000     0          
O20      O      0.709600000000     0.519900000000     0.409000000000     0          
O21      O      0.791600000000     0.409000000000     0.990600000000     0          
O22      O      0.623100000000     0.189100000000     0.007800000000     0          
O23      O      0.877100000000     0.310300000000     0.008600000000     0          
O24      O      0.691400000000     0.875300000000     0.980800000000     0          
O25      O      0.591200000000     0.789500000000     0.981700000000     0          
O26      O      0.490300000000     0.790900000000     0.089700000000     0          
O27      O      0.920000000000     0.418000000000     0.921000000000     0          
O28      O      0.709700000000     0.091800000000     0.992700000000     0          
O29      O      0.409800000000     0.992100000000     0.208800000000     0          
O30      O      0.993100000000     0.624000000000     0.189800000000     0          
O31      O      0.090200000000     0.991500000000     0.290700000000     0          
O32      O      0.622700000000     0.520000000000     0.307700000000     0          
O33      O      0.009000000000     0.790300000000     0.411300000000     0          
C2       C      0.496000000000     0.690800000000     0.338300000000     0          
C3       C      0.500000000000     0.755500000000     0.288200000000     0          
H2       H      0.503800000000     0.804600000000     0.308400000000     0          
C4       C      0.005000000000     0.808000000000     0.341000000000     0          
O34      O      0.909100000000     0.710500000000     0.980900000000     0          
C5       C      0.158900000000     0.998000000000     0.310000000000     0          
C6       C      0.340000000000     0.995000000000     0.190000000000     0          
C7       C      0.288100000000     0.999000000000     0.254000000000     0          
H3       H      0.307400000000     0.001300000000     0.303600000000     0          
C8       C      0.498000000000     0.745500000000     0.213100000000     0          
H4       H      0.498800000000     0.695700000000     0.194000000000     0          
C9       C      0.003000000000     0.691000000000     0.158000000000     0          
O35      O      0.878000000000     0.190000000000     0.492800000000     0          
C10      C      0.809200000000     0.159800000000     0.504000000000     0          
C11      C      0.002000000000     0.744000000000     0.290000000000     0          
H5       H      0.999300000000     0.694100000000     0.309200000000     0          
C12      C      0.743300000000     0.210900000000     0.503000000000     0          
H6       H      0.693600000000     0.191600000000     0.502200000000     0          
O36      O      0.790300000000     0.518800000000     0.091800000000     0          
C13      C      0.787000000000     0.753300000000     0.985000000000     0          
H7       H      0.806500000000     0.802600000000     0.988100000000     0          
C14      C      0.744400000000     0.519000000000     0.212000000000     0          
H8       H      0.694600000000     0.521400000000     0.193000000000     0          
C15      C      0.810400000000     0.520000000000     0.158000000000     0          
C16      C      0.211800000000     0.000000000000     0.242000000000     0          
H9       H      0.192000000000     0.002100000000     0.192400000000     0          
O37      O      0.440600000000     0.433400000000     0.549300000000     0          
O38      O      0.080000000000     0.918000000000     0.419000000000     0          
C17      C      0.755700000000     0.210800000000     0.000000000000     0          
H10      H      0.805300000000     0.191400000000     0.003500000000     0          
C18      C      0.690000000000     0.158400000000     0.997000000000     0          
C19      C      0.687900000000     0.517000000000     0.339000000000     0          
C20      C      0.840000000000     0.689200000000     0.980000000000     0          
C21      C      0.755000000000     0.515000000000     0.286000000000     0          
H11      H      0.804500000000     0.512000000000     0.305500000000     0          
O39      O      0.791100000000     0.088400000000     0.508200000000     0          
C22      C      0.757000000000     0.289700000000     0.501000000000     0          
H12      H      0.806600000000     0.309000000000     0.499700000000     0          
C23      C      0.659000000000     0.810700000000     0.982000000000     0          
C24      C      0.692000000000     0.340100000000     0.503000000000     0          
C25      C      0.713000000000     0.745500000000     0.984000000000     0          
H13      H      0.693400000000     0.696100000000     0.985200000000     0          
C26      C      0.812000000000     0.342000000000     0.996000000000     0          
C27      C      0.744600000000     0.287600000000     0.998000000000     0          
H14      H      0.695000000000     0.307200000000     0.998700000000     0          
O40      O      0.065400000000     0.549900000000     0.940600000000     0          
C28      C      0.496000000000     0.808000000000     0.159600000000     0          
Zr10     Zr     0.362330000000     0.010480000000     0.010920000000     0          
Zr11     Zr     0.488930000000     0.862310000000     0.989540000000     0          
Zr12     Zr     0.489330000000     0.011000000000     0.862370000000     0          
O41      O      0.561000000000     0.060000000000     0.938000000000     0          
O42      O      0.550400000000     0.939300000000     0.933300000000     0          
O43      O      0.409000000000     0.934200000000     0.922100000000     0          
O44      O      0.443000000000     0.066200000000     0.949500000000     0          
O45      O      0.190200000000     0.490000000000     0.123400000000     0          
O46      O      0.310900000000     0.493600000000     0.376100000000     0          
O47      O      0.409600000000     0.509100000000     0.290600000000     0          
C29      C      0.339700000000     0.506000000000     0.309000000000     0          
C30      C      0.212400000000     0.499900000000     0.255400000000     0          
H15      H      0.192700000000     0.498400000000     0.304900000000     0          
C31      C      0.286000000000     0.500000000000     0.246000000000     0          
H16      H      0.305900000000     0.496900000000     0.196700000000     0          
O48      O      0.090500000000     0.508400000000     0.210800000000     0          
C32      C      0.160000000000     0.502000000000     0.191000000000     0          
O49      O      0.308800000000     0.377700000000     0.479500000000     0          
O50      O      0.192700000000     0.124200000000     0.480100000000     0          
O51      O      0.409700000000     0.288800000000     0.481200000000     0          
O52      O      0.089900000000     0.210100000000     0.481100000000     0          
C33      C      0.158000000000     0.190300000000     0.482000000000     0          
C34      C      0.340000000000     0.310000000000     0.484000000000     0          
C35      C      0.214000000000     0.255000000000     0.481000000000     0          
H17      H      0.195000000000     0.304600000000     0.479900000000     0          
C36      C      0.288000000000     0.245000000000     0.482000000000     0          
H18      H      0.308400000000     0.195800000000     0.481700000000     0          
O53      O      0.521000000000     0.193000000000     0.121700000000     0          
O54      O      0.520200000000     0.309800000000     0.376800000000     0          
O55      O      0.519000000000     0.092200000000     0.210200000000     0          
C37      C      0.517000000000     0.214000000000     0.254000000000     0          
H19      H      0.516500000000     0.194200000000     0.304000000000     0          
O56      O      0.518300000000     0.408200000000     0.288600000000     0          
C38      C      0.518000000000     0.339000000000     0.311300000000     0          
C39      C      0.515000000000     0.286000000000     0.245000000000     0          
H20      H      0.512700000000     0.306200000000     0.195700000000     0          
C40      C      0.520000000000     0.159000000000     0.190000000000     0          
O57      O      0.979500000000     0.192600000000     0.376300000000     0          
O58      O      0.979400000000     0.091200000000     0.289300000000     0          
O59      O      0.983400000000     0.408700000000     0.210900000000     0          
O60      O      0.980700000000     0.308600000000     0.122900000000     0          
C41      C      0.985000000000     0.288000000000     0.255000000000     0          
H21      H      0.989300000000     0.308400000000     0.303700000000     0          
C42      C      0.982000000000     0.339000000000     0.189700000000     0          
C43      C      0.983000000000     0.161200000000     0.311000000000     0          
C44      C      0.982000000000     0.212000000000     0.245000000000     0          
H22      H      0.978800000000     0.191900000000     0.196200000000     0          
O61      O      0.211100000000     0.018700000000     0.589400000000     0          
O62      O      0.288900000000     0.018100000000     0.909800000000     0          
O63      O      0.122900000000     0.018700000000     0.690000000000     0          
O64      O      0.375900000000     0.020800000000     0.808400000000     0          
C45      C      0.256000000000     0.018000000000     0.714000000000     0          
H23      H      0.306200000000     0.022900000000     0.695500000000     0          
C46      C      0.188500000000     0.015000000000     0.659300000000     0          
C47      C      0.243000000000     0.014000000000     0.785000000000     0          
H24      H      0.194100000000     0.007500000000     0.804300000000     0          
C48      C      0.311300000000     0.021000000000     0.837000000000     0          
O109?    O      0.090500000000     0.565600000000     0.921800000000     0          
O111?    O      0.440000000000     0.559000000000     0.441000000000     0          
O112?    O      0.421100000000     0.408700000000     0.566800000000     0          
O113?    O      0.563600000000     0.452800000000     0.441100000000     0          
O114?    O      0.434000000000     0.420400000000     0.410000000000     0          
O115?    O      0.061000000000     0.940000000000     0.439000000000     0          
O116?    O      0.933800000000     0.049800000000     0.439800000000     0          
O117?    O      0.058600000000     0.067300000000     0.546100000000     0          
O118?    O      0.069000000000     0.077000000000     0.410000000000     0          
O119?    O      0.433100000000     0.951200000000     0.941400000000     0          
O120?    O      0.421700000000     0.090000000000     0.932000000000     0          
O121?    O      0.580000000000     0.081000000000     0.921000000000     0          
O122?    O      0.566900000000     0.922000000000     0.909000000000     0          
O123?    O      0.940000000000     0.442000000000     0.939000000000     0          
O124?    O      0.935100000000     0.577100000000     0.908000000000     0          
O125?    O      0.921600000000     0.588400000000     0.065800000000     0          


