data_BOHJOZ

_audit_creation_method RASPA-1.0
_audit_creation_date 2020-4-3
_audit_author_name 'Rocio Bueno-Perez'

_cell_length_a    17.9309
_cell_length_b    17.9309
_cell_length_c    17.9309
_cell_angle_alpha 90
_cell_angle_beta  90
_cell_angle_gamma 90
_cell_volume      5765.09

_symmetry_cell_setting          cubic
_symmetry_space_group_name_Hall 'P 1'
_symmetry_space_group_name_H-M  'P 1'
_symmetry_Int_Tables_number     1

_symmetry_equiv_pos_as_xyz 'x,y,z'

loop_
_atom_site_label
_atom_site_type_symbol
_atom_site_fract_x
_atom_site_fract_y
_atom_site_fract_z
_atom_site_charge
Zr1      Zr     0.362310000000     0.511170000000     0.011970000000     0          
O1       O      0.450700000000     0.559000000000     0.068700000000     0          
O2       O      0.310600000000     0.623500000000     0.024000000000     0          
O4       O      0.290800000000     0.409500000000     0.008600000000     0          
O5       O      0.410100000000     0.708200000000     0.023900000000     0          
O6       O      0.375600000000     0.310500000000     0.992800000000     0          
C1       C      0.339800000000     0.689500000000     0.024100000000     0          
C2       C      0.287100000000     0.755000000000     0.025000000000     0          
H1       H      0.306700000000     0.804200000000     0.025600000000     0          
C3       C      0.310100000000     0.340100000000     0.000400000000     0          
C4       C      0.244700000000     0.287200000000     0.000100000000     0          
H2       H      0.195300000000     0.306500000000     0.999900000000     0          
O10?     O      0.435000000000     0.577700000000     0.091800000000     0          
O3       O      0.421100000000     0.421100000000     0.078900000000     0          
O11?     O      0.440200000000     0.440200000000     0.059800000000     0          
Zr1      Zr     0.137690000000     0.988830000000     0.011970000000     0          
O1       O      0.049300000000     0.941000000000     0.068700000000     0          
O2       O      0.189400000000     0.876500000000     0.024000000000     0          
O4       O      0.209200000000     0.090500000000     0.008600000000     0          
O5       O      0.089900000000     0.791800000000     0.023900000000     0          
O6       O      0.124400000000     0.189500000000     0.992800000000     0          
C1       C      0.160200000000     0.810500000000     0.024100000000     0          
C2       C      0.212900000000     0.745000000000     0.025000000000     0          
H1       H      0.193300000000     0.695800000000     0.025600000000     0          
C3       C      0.189900000000     0.159900000000     0.000400000000     0          
C4       C      0.255300000000     0.212800000000     0.000100000000     0          
H2       H      0.304700000000     0.193500000000     0.999900000000     0          
O10?     O      0.065000000000     0.922300000000     0.091800000000     0          
O3       O      0.078900000000     0.078900000000     0.078900000000     0          
O11?     O      0.059800000000     0.059800000000     0.059800000000     0          
Zr1      Zr     0.362310000000     0.988830000000     0.488030000000     0          
O1       O      0.450700000000     0.941000000000     0.431300000000     0          
O2       O      0.310600000000     0.876500000000     0.476000000000     0          
O4       O      0.290800000000     0.090500000000     0.491400000000     0          
O5       O      0.410100000000     0.791800000000     0.476100000000     0          
O6       O      0.375600000000     0.189500000000     0.507200000000     0          
C1       C      0.339800000000     0.810500000000     0.475900000000     0          
C2       C      0.287100000000     0.745000000000     0.475000000000     0          
H1       H      0.306700000000     0.695800000000     0.474400000000     0          
C3       C      0.310100000000     0.159900000000     0.499600000000     0          
C4       C      0.244700000000     0.212800000000     0.499900000000     0          
H2       H      0.195300000000     0.193500000000     0.500100000000     0          
O10?     O      0.435000000000     0.922300000000     0.408200000000     0          
O3       O      0.421100000000     0.078900000000     0.421100000000     0          
O11?     O      0.440200000000     0.059800000000     0.440200000000     0          
Zr1      Zr     0.137690000000     0.511170000000     0.488030000000     0          
O1       O      0.049300000000     0.559000000000     0.431300000000     0          
O2       O      0.189400000000     0.623500000000     0.476000000000     0          
O4       O      0.209200000000     0.409500000000     0.491400000000     0          
O5       O      0.089900000000     0.708200000000     0.476100000000     0          
O6       O      0.124400000000     0.310500000000     0.507200000000     0          
C1       C      0.160200000000     0.689500000000     0.475900000000     0          
C2       C      0.212900000000     0.755000000000     0.475000000000     0          
H1       H      0.193300000000     0.804200000000     0.474400000000     0          
C3       C      0.189900000000     0.340100000000     0.499600000000     0          
C4       C      0.255300000000     0.287200000000     0.499900000000     0          
H2       H      0.304700000000     0.306500000000     0.500100000000     0          
O10?     O      0.065000000000     0.577700000000     0.408200000000     0          
O3       O      0.078900000000     0.421100000000     0.421100000000     0          
O11?     O      0.059800000000     0.440200000000     0.440200000000     0          
Zr1      Zr     0.011970000000     0.362310000000     0.511170000000     0          
O1       O      0.068700000000     0.450700000000     0.559000000000     0          
O2       O      0.024000000000     0.310600000000     0.623500000000     0          
O4       O      0.008600000000     0.290800000000     0.409500000000     0          
O5       O      0.023900000000     0.410100000000     0.708200000000     0          
O6       O      0.992800000000     0.375600000000     0.310500000000     0          
C1       C      0.024100000000     0.339800000000     0.689500000000     0          
C2       C      0.025000000000     0.287100000000     0.755000000000     0          
H1       H      0.025600000000     0.306700000000     0.804200000000     0          
C3       C      0.000400000000     0.310100000000     0.340100000000     0          
C4       C      0.000100000000     0.244700000000     0.287200000000     0          
H2       H      0.999900000000     0.195300000000     0.306500000000     0          
O10?     O      0.091800000000     0.435000000000     0.577700000000     0          
Zr1      Zr     0.488030000000     0.137690000000     0.511170000000     0          
O1       O      0.431300000000     0.049300000000     0.559000000000     0          
O2       O      0.476000000000     0.189400000000     0.623500000000     0          
O4       O      0.491400000000     0.209200000000     0.409500000000     0          
O5       O      0.476100000000     0.089900000000     0.708200000000     0          
O6       O      0.507200000000     0.124400000000     0.310500000000     0          
C1       C      0.475900000000     0.160200000000     0.689500000000     0          
C2       C      0.475000000000     0.212900000000     0.755000000000     0          
H1       H      0.474400000000     0.193300000000     0.804200000000     0          
C3       C      0.499600000000     0.189900000000     0.340100000000     0          
C4       C      0.499900000000     0.255300000000     0.287200000000     0          
H2       H      0.500100000000     0.304700000000     0.306500000000     0          
O10?     O      0.408200000000     0.065000000000     0.577700000000     0          
Zr1      Zr     0.011970000000     0.137690000000     0.988830000000     0          
O1       O      0.068700000000     0.049300000000     0.941000000000     0          
O2       O      0.024000000000     0.189400000000     0.876500000000     0          
O4       O      0.008600000000     0.209200000000     0.090500000000     0          
O5       O      0.023900000000     0.089900000000     0.791800000000     0          
O6       O      0.992800000000     0.124400000000     0.189500000000     0          
C1       C      0.024100000000     0.160200000000     0.810500000000     0          
C2       C      0.025000000000     0.212900000000     0.745000000000     0          
H1       H      0.025600000000     0.193300000000     0.695800000000     0          
C3       C      0.000400000000     0.189900000000     0.159900000000     0          
C4       C      0.000100000000     0.255300000000     0.212800000000     0          
H2       H      0.999900000000     0.304700000000     0.193500000000     0          
O10?     O      0.091800000000     0.065000000000     0.922300000000     0          
Zr1      Zr     0.488030000000     0.362310000000     0.988830000000     0          
O1       O      0.431300000000     0.450700000000     0.941000000000     0          
O2       O      0.476000000000     0.310600000000     0.876500000000     0          
O4       O      0.491400000000     0.290800000000     0.090500000000     0          
O5       O      0.476100000000     0.410100000000     0.791800000000     0          
O6       O      0.507200000000     0.375600000000     0.189500000000     0          
C1       C      0.475900000000     0.339800000000     0.810500000000     0          
C2       C      0.475000000000     0.287100000000     0.745000000000     0          
H1       H      0.474400000000     0.306700000000     0.695800000000     0          
C3       C      0.499600000000     0.310100000000     0.159900000000     0          
C4       C      0.499900000000     0.244700000000     0.212800000000     0          
H2       H      0.500100000000     0.195300000000     0.193500000000     0          
O10?     O      0.408200000000     0.435000000000     0.922300000000     0          
Zr1      Zr     0.511170000000     0.011970000000     0.362310000000     0          
O1       O      0.559000000000     0.068700000000     0.450700000000     0          
O2       O      0.623500000000     0.024000000000     0.310600000000     0          
O4       O      0.409500000000     0.008600000000     0.290800000000     0          
O5       O      0.708200000000     0.023900000000     0.410100000000     0          
O6       O      0.310500000000     0.992800000000     0.375600000000     0          
C1       C      0.689500000000     0.024100000000     0.339800000000     0          
C2       C      0.755000000000     0.025000000000     0.287100000000     0          
H1       H      0.804200000000     0.025600000000     0.306700000000     0          
C3       C      0.340100000000     0.000400000000     0.310100000000     0          
C4       C      0.287200000000     0.000100000000     0.244700000000     0          
H2       H      0.306500000000     0.999900000000     0.195300000000     0          
O10?     O      0.577700000000     0.091800000000     0.435000000000     0          
Zr1      Zr     0.511170000000     0.488030000000     0.137690000000     0          
O1       O      0.559000000000     0.431300000000     0.049300000000     0          
O2       O      0.623500000000     0.476000000000     0.189400000000     0          
O4       O      0.409500000000     0.491400000000     0.209200000000     0          
O5       O      0.708200000000     0.476100000000     0.089900000000     0          
O6       O      0.310500000000     0.507200000000     0.124400000000     0          
C1       C      0.689500000000     0.475900000000     0.160200000000     0          
C2       C      0.755000000000     0.475000000000     0.212900000000     0          
H1       H      0.804200000000     0.474400000000     0.193300000000     0          
C3       C      0.340100000000     0.499600000000     0.189900000000     0          
C4       C      0.287200000000     0.499900000000     0.255300000000     0          
H2       H      0.306500000000     0.500100000000     0.304700000000     0          
O10?     O      0.577700000000     0.408200000000     0.065000000000     0          
Zr1      Zr     0.988830000000     0.011970000000     0.137690000000     0          
O1       O      0.941000000000     0.068700000000     0.049300000000     0          
O2       O      0.876500000000     0.024000000000     0.189400000000     0          
O4       O      0.090500000000     0.008600000000     0.209200000000     0          
O5       O      0.791800000000     0.023900000000     0.089900000000     0          
O6       O      0.189500000000     0.992800000000     0.124400000000     0          
C1       C      0.810500000000     0.024100000000     0.160200000000     0          
C2       C      0.745000000000     0.025000000000     0.212900000000     0          
H1       H      0.695800000000     0.025600000000     0.193300000000     0          
C3       C      0.159900000000     0.000400000000     0.189900000000     0          
C4       C      0.212800000000     0.000100000000     0.255300000000     0          
H2       H      0.193500000000     0.999900000000     0.304700000000     0          
O10?     O      0.922300000000     0.091800000000     0.065000000000     0          
Zr1      Zr     0.988830000000     0.488030000000     0.362310000000     0          
O1       O      0.941000000000     0.431300000000     0.450700000000     0          
O2       O      0.876500000000     0.476000000000     0.310600000000     0          
O4       O      0.090500000000     0.491400000000     0.290800000000     0          
O5       O      0.791800000000     0.476100000000     0.410100000000     0          
O6       O      0.189500000000     0.507200000000     0.375600000000     0          
C1       C      0.810500000000     0.475900000000     0.339800000000     0          
C2       C      0.745000000000     0.475000000000     0.287100000000     0          
H1       H      0.695800000000     0.474400000000     0.306700000000     0          
C3       C      0.159900000000     0.499600000000     0.310100000000     0          
C4       C      0.212800000000     0.499900000000     0.244700000000     0          
H2       H      0.193500000000     0.500100000000     0.195300000000     0          
O10?     O      0.922300000000     0.408200000000     0.435000000000     0          
Zr1      Zr     0.637690000000     0.488830000000     0.988030000000     0          
O1       O      0.549300000000     0.441000000000     0.931300000000     0          
O2       O      0.689400000000     0.376500000000     0.976000000000     0          
O4       O      0.709200000000     0.590500000000     0.991400000000     0          
O5       O      0.589900000000     0.291800000000     0.976100000000     0          
O6       O      0.624400000000     0.689500000000     0.007200000000     0          
C1       C      0.660200000000     0.310500000000     0.975900000000     0          
C2       C      0.712900000000     0.245000000000     0.975000000000     0          
H1       H      0.693300000000     0.195800000000     0.974400000000     0          
C3       C      0.689900000000     0.659900000000     0.999600000000     0          
C4       C      0.755300000000     0.712800000000     0.999900000000     0          
H2       H      0.804700000000     0.693500000000     0.000100000000     0          
O10?     O      0.565000000000     0.422300000000     0.908200000000     0          
O3       O      0.578900000000     0.578900000000     0.921100000000     0          
O11?     O      0.559800000000     0.559800000000     0.940200000000     0          
Zr1      Zr     0.862310000000     0.011170000000     0.988030000000     0          
O1       O      0.950700000000     0.059000000000     0.931300000000     0          
O2       O      0.810600000000     0.123500000000     0.976000000000     0          
O4       O      0.790800000000     0.909500000000     0.991400000000     0          
O5       O      0.910100000000     0.208200000000     0.976100000000     0          
O6       O      0.875600000000     0.810500000000     0.007200000000     0          
C1       C      0.839800000000     0.189500000000     0.975900000000     0          
C2       C      0.787100000000     0.255000000000     0.975000000000     0          
H1       H      0.806700000000     0.304200000000     0.974400000000     0          
C3       C      0.810100000000     0.840100000000     0.999600000000     0          
C4       C      0.744700000000     0.787200000000     0.999900000000     0          
H2       H      0.695300000000     0.806500000000     0.000100000000     0          
O10?     O      0.935000000000     0.077700000000     0.908200000000     0          
O3       O      0.921100000000     0.921100000000     0.921100000000     0          
O11?     O      0.940200000000     0.940200000000     0.940200000000     0          
Zr1      Zr     0.637690000000     0.011170000000     0.511970000000     0          
O1       O      0.549300000000     0.059000000000     0.568700000000     0          
O2       O      0.689400000000     0.123500000000     0.524000000000     0          
O4       O      0.709200000000     0.909500000000     0.508600000000     0          
O5       O      0.589900000000     0.208200000000     0.523900000000     0          
O6       O      0.624400000000     0.810500000000     0.492800000000     0          
C1       C      0.660200000000     0.189500000000     0.524100000000     0          
C2       C      0.712900000000     0.255000000000     0.525000000000     0          
H1       H      0.693300000000     0.304200000000     0.525600000000     0          
C3       C      0.689900000000     0.840100000000     0.500400000000     0          
C4       C      0.755300000000     0.787200000000     0.500100000000     0          
H2       H      0.804700000000     0.806500000000     0.499900000000     0          
O10?     O      0.565000000000     0.077700000000     0.591800000000     0          
O3       O      0.578900000000     0.921100000000     0.578900000000     0          
O11?     O      0.559800000000     0.940200000000     0.559800000000     0          
Zr1      Zr     0.862310000000     0.488830000000     0.511970000000     0          
O1       O      0.950700000000     0.441000000000     0.568700000000     0          
O2       O      0.810600000000     0.376500000000     0.524000000000     0          
O4       O      0.790800000000     0.590500000000     0.508600000000     0          
O5       O      0.910100000000     0.291800000000     0.523900000000     0          
O6       O      0.875600000000     0.689500000000     0.492800000000     0          
C1       C      0.839800000000     0.310500000000     0.524100000000     0          
C2       C      0.787100000000     0.245000000000     0.525000000000     0          
H1       H      0.806700000000     0.195800000000     0.525600000000     0          
C3       C      0.810100000000     0.659900000000     0.500400000000     0          
C4       C      0.744700000000     0.712800000000     0.500100000000     0          
H2       H      0.695300000000     0.693500000000     0.499900000000     0          
O10?     O      0.935000000000     0.422300000000     0.591800000000     0          
O3       O      0.921100000000     0.578900000000     0.578900000000     0          
O11?     O      0.940200000000     0.559800000000     0.559800000000     0          
Zr1      Zr     0.988030000000     0.637690000000     0.488830000000     0          
O1       O      0.931300000000     0.549300000000     0.441000000000     0          
O2       O      0.976000000000     0.689400000000     0.376500000000     0          
O4       O      0.991400000000     0.709200000000     0.590500000000     0          
O5       O      0.976100000000     0.589900000000     0.291800000000     0          
O6       O      0.007200000000     0.624400000000     0.689500000000     0          
C1       C      0.975900000000     0.660200000000     0.310500000000     0          
C2       C      0.975000000000     0.712900000000     0.245000000000     0          
H1       H      0.974400000000     0.693300000000     0.195800000000     0          
C3       C      0.999600000000     0.689900000000     0.659900000000     0          
C4       C      0.999900000000     0.755300000000     0.712800000000     0          
H2       H      0.000100000000     0.804700000000     0.693500000000     0          
O10?     O      0.908200000000     0.565000000000     0.422300000000     0          
Zr1      Zr     0.511970000000     0.862310000000     0.488830000000     0          
O1       O      0.568700000000     0.950700000000     0.441000000000     0          
O2       O      0.524000000000     0.810600000000     0.376500000000     0          
O4       O      0.508600000000     0.790800000000     0.590500000000     0          
O5       O      0.523900000000     0.910100000000     0.291800000000     0          
O6       O      0.492800000000     0.875600000000     0.689500000000     0          
C1       C      0.524100000000     0.839800000000     0.310500000000     0          
C2       C      0.525000000000     0.787100000000     0.245000000000     0          
H1       H      0.525600000000     0.806700000000     0.195800000000     0          
C3       C      0.500400000000     0.810100000000     0.659900000000     0          
C4       C      0.500100000000     0.744700000000     0.712800000000     0          
H2       H      0.499900000000     0.695300000000     0.693500000000     0          
O10?     O      0.591800000000     0.935000000000     0.422300000000     0          
Zr1      Zr     0.988030000000     0.862310000000     0.011170000000     0          
O1       O      0.931300000000     0.950700000000     0.059000000000     0          
O2       O      0.976000000000     0.810600000000     0.123500000000     0          
O4       O      0.991400000000     0.790800000000     0.909500000000     0          
O5       O      0.976100000000     0.910100000000     0.208200000000     0          
O6       O      0.007200000000     0.875600000000     0.810500000000     0          
C1       C      0.975900000000     0.839800000000     0.189500000000     0          
C2       C      0.975000000000     0.787100000000     0.255000000000     0          
H1       H      0.974400000000     0.806700000000     0.304200000000     0          
C3       C      0.999600000000     0.810100000000     0.840100000000     0          
C4       C      0.999900000000     0.744700000000     0.787200000000     0          
H2       H      0.000100000000     0.695300000000     0.806500000000     0          
O10?     O      0.908200000000     0.935000000000     0.077700000000     0          
Zr1      Zr     0.511970000000     0.637690000000     0.011170000000     0          
O1       O      0.568700000000     0.549300000000     0.059000000000     0          
O2       O      0.524000000000     0.689400000000     0.123500000000     0          
O4       O      0.508600000000     0.709200000000     0.909500000000     0          
O5       O      0.523900000000     0.589900000000     0.208200000000     0          
O6       O      0.492800000000     0.624400000000     0.810500000000     0          
C1       C      0.524100000000     0.660200000000     0.189500000000     0          
C2       C      0.525000000000     0.712900000000     0.255000000000     0          
H1       H      0.525600000000     0.693300000000     0.304200000000     0          
C3       C      0.500400000000     0.689900000000     0.840100000000     0          
C4       C      0.500100000000     0.755300000000     0.787200000000     0          
H2       H      0.499900000000     0.804700000000     0.806500000000     0          
O10?     O      0.591800000000     0.565000000000     0.077700000000     0          
Zr1      Zr     0.488830000000     0.988030000000     0.637690000000     0          
O1       O      0.441000000000     0.931300000000     0.549300000000     0          
O2       O      0.376500000000     0.976000000000     0.689400000000     0          
O4       O      0.590500000000     0.991400000000     0.709200000000     0          
O5       O      0.291800000000     0.976100000000     0.589900000000     0          
O6       O      0.689500000000     0.007200000000     0.624400000000     0          
C1       C      0.310500000000     0.975900000000     0.660200000000     0          
C2       C      0.245000000000     0.975000000000     0.712900000000     0          
H1       H      0.195800000000     0.974400000000     0.693300000000     0          
C3       C      0.659900000000     0.999600000000     0.689900000000     0          
C4       C      0.712800000000     0.999900000000     0.755300000000     0          
H2       H      0.693500000000     0.000100000000     0.804700000000     0          
O10?     O      0.422300000000     0.908200000000     0.565000000000     0          
Zr1      Zr     0.488830000000     0.511970000000     0.862310000000     0          
O1       O      0.441000000000     0.568700000000     0.950700000000     0          
O2       O      0.376500000000     0.524000000000     0.810600000000     0          
O4       O      0.590500000000     0.508600000000     0.790800000000     0          
O5       O      0.291800000000     0.523900000000     0.910100000000     0          
O6       O      0.689500000000     0.492800000000     0.875600000000     0          
C1       C      0.310500000000     0.524100000000     0.839800000000     0          
C2       C      0.245000000000     0.525000000000     0.787100000000     0          
H1       H      0.195800000000     0.525600000000     0.806700000000     0          
C3       C      0.659900000000     0.500400000000     0.810100000000     0          
C4       C      0.712800000000     0.500100000000     0.744700000000     0          
H2       H      0.693500000000     0.499900000000     0.695300000000     0          
O10?     O      0.422300000000     0.591800000000     0.935000000000     0          
Zr1      Zr     0.011170000000     0.988030000000     0.862310000000     0          
O1       O      0.059000000000     0.931300000000     0.950700000000     0          
O2       O      0.123500000000     0.976000000000     0.810600000000     0          
O4       O      0.909500000000     0.991400000000     0.790800000000     0          
O5       O      0.208200000000     0.976100000000     0.910100000000     0          
O6       O      0.810500000000     0.007200000000     0.875600000000     0          
C1       C      0.189500000000     0.975900000000     0.839800000000     0          
C2       C      0.255000000000     0.975000000000     0.787100000000     0          
H1       H      0.304200000000     0.974400000000     0.806700000000     0          
C3       C      0.840100000000     0.999600000000     0.810100000000     0          
C4       C      0.787200000000     0.999900000000     0.744700000000     0          
H2       H      0.806500000000     0.000100000000     0.695300000000     0          
O10?     O      0.077700000000     0.908200000000     0.935000000000     0          
Zr1      Zr     0.011170000000     0.511970000000     0.637690000000     0          
O1       O      0.059000000000     0.568700000000     0.549300000000     0          
O2       O      0.123500000000     0.524000000000     0.689400000000     0          
O4       O      0.909500000000     0.508600000000     0.709200000000     0          
O5       O      0.208200000000     0.523900000000     0.589900000000     0          
O6       O      0.810500000000     0.492800000000     0.624400000000     0          
C1       C      0.189500000000     0.524100000000     0.660200000000     0          
C2       C      0.255000000000     0.525000000000     0.712900000000     0          
H1       H      0.304200000000     0.525600000000     0.693300000000     0          
C3       C      0.840100000000     0.500400000000     0.689900000000     0          
C4       C      0.787200000000     0.500100000000     0.755300000000     0          
H2       H      0.806500000000     0.499900000000     0.804700000000     0          
O10?     O      0.077700000000     0.591800000000     0.565000000000     0          


