data_BOHKAM

_audit_creation_method RASPA-1.0
_audit_creation_date 2020-4-3
_audit_author_name 'Rocio Bueno-Perez'

_cell_length_a    17.8348
_cell_length_b    17.8348
_cell_length_c    17.8348
_cell_angle_alpha 90
_cell_angle_beta  90
_cell_angle_gamma 90
_cell_volume      5672.89

_symmetry_cell_setting          cubic
_symmetry_space_group_name_Hall 'P 1'
_symmetry_space_group_name_H-M  'P 1'
_symmetry_Int_Tables_number     1

_symmetry_equiv_pos_as_xyz 'x,y,z'

loop_
_atom_site_label
_atom_site_type_symbol
_atom_site_fract_x
_atom_site_fract_y
_atom_site_fract_z
_atom_site_charge
Zr1      Zr     0.137850000000     0.511130000000     0.011880000000     0          
O1       O      0.209000000000     0.408500000000     0.008000000000     0          
O2       O      0.190400000000     0.624600000000     0.024600000000     0          
O3       O      0.126300000000     0.310400000000     0.992700000000     0          
O4       O      0.090600000000     0.708800000000     0.023900000000     0          
C1       C      0.160400000000     0.689100000000     0.024000000000     0          
C2       C      0.214200000000     0.755500000000     0.024300000000     0          
H1       H      0.195500000000     0.804200000000     0.024400000000     0          
C3       C      0.190600000000     0.339800000000     0.000000000000     0          
C4       C      0.256700000000     0.286500000000     0.000100000000     0          
H2       H      0.305600000000     0.304600000000     0.000100000000     0          
O5       O      0.076500000000     0.591700000000     0.935300000000     0          
O8?      O      0.059600000000     0.568600000000     0.950400000000     0          
O6       O      0.078500000000     0.421500000000     0.078500000000     0          
O7?      O      0.059600000000     0.440400000000     0.059600000000     0          
Zr1      Zr     0.362150000000     0.988870000000     0.011880000000     0          
O1       O      0.291000000000     0.091500000000     0.008000000000     0          
O2       O      0.309600000000     0.875400000000     0.024600000000     0          
O3       O      0.373700000000     0.189600000000     0.992700000000     0          
O4       O      0.409400000000     0.791200000000     0.023900000000     0          
C1       C      0.339600000000     0.810900000000     0.024000000000     0          
C2       C      0.285800000000     0.744500000000     0.024300000000     0          
H1       H      0.304500000000     0.695800000000     0.024400000000     0          
C3       C      0.309400000000     0.160200000000     0.000000000000     0          
C4       C      0.243300000000     0.213500000000     0.000100000000     0          
H2       H      0.194400000000     0.195400000000     0.000100000000     0          
O5       O      0.423500000000     0.908300000000     0.935300000000     0          
O8?      O      0.440400000000     0.931400000000     0.950400000000     0          
O6       O      0.421500000000     0.078500000000     0.078500000000     0          
O7?      O      0.440400000000     0.059600000000     0.059600000000     0          
Zr1      Zr     0.137850000000     0.988870000000     0.488120000000     0          
O1       O      0.209000000000     0.091500000000     0.492000000000     0          
O2       O      0.190400000000     0.875400000000     0.475400000000     0          
O3       O      0.126300000000     0.189600000000     0.507300000000     0          
O4       O      0.090600000000     0.791200000000     0.476100000000     0          
C1       C      0.160400000000     0.810900000000     0.476000000000     0          
C2       C      0.214200000000     0.744500000000     0.475700000000     0          
H1       H      0.195500000000     0.695800000000     0.475600000000     0          
C3       C      0.190600000000     0.160200000000     0.500000000000     0          
C4       C      0.256700000000     0.213500000000     0.499900000000     0          
H2       H      0.305600000000     0.195400000000     0.499900000000     0          
O5       O      0.076500000000     0.908300000000     0.564700000000     0          
O8?      O      0.059600000000     0.931400000000     0.549600000000     0          
O6       O      0.078500000000     0.078500000000     0.421500000000     0          
O7?      O      0.059600000000     0.059600000000     0.440400000000     0          
Zr1      Zr     0.362150000000     0.511130000000     0.488120000000     0          
O1       O      0.291000000000     0.408500000000     0.492000000000     0          
O2       O      0.309600000000     0.624600000000     0.475400000000     0          
O3       O      0.373700000000     0.310400000000     0.507300000000     0          
O4       O      0.409400000000     0.708800000000     0.476100000000     0          
C1       C      0.339600000000     0.689100000000     0.476000000000     0          
C2       C      0.285800000000     0.755500000000     0.475700000000     0          
H1       H      0.304500000000     0.804200000000     0.475600000000     0          
C3       C      0.309400000000     0.339800000000     0.500000000000     0          
C4       C      0.243300000000     0.286500000000     0.499900000000     0          
H2       H      0.194400000000     0.304600000000     0.499900000000     0          
O5       O      0.423500000000     0.591700000000     0.564700000000     0          
O8?      O      0.440400000000     0.568600000000     0.549600000000     0          
O6       O      0.421500000000     0.421500000000     0.421500000000     0          
O7?      O      0.440400000000     0.440400000000     0.440400000000     0          
Zr1      Zr     0.011880000000     0.137850000000     0.511130000000     0          
O1       O      0.008000000000     0.209000000000     0.408500000000     0          
O2       O      0.024600000000     0.190400000000     0.624600000000     0          
O3       O      0.992700000000     0.126300000000     0.310400000000     0          
O4       O      0.023900000000     0.090600000000     0.708800000000     0          
C1       C      0.024000000000     0.160400000000     0.689100000000     0          
C2       C      0.024300000000     0.214200000000     0.755500000000     0          
H1       H      0.024400000000     0.195500000000     0.804200000000     0          
C3       C      0.000000000000     0.190600000000     0.339800000000     0          
C4       C      0.000100000000     0.256700000000     0.286500000000     0          
H2       H      0.000100000000     0.305600000000     0.304600000000     0          
O5       O      0.935300000000     0.076500000000     0.591700000000     0          
O8?      O      0.950400000000     0.059600000000     0.568600000000     0          
Zr1      Zr     0.488120000000     0.362150000000     0.511130000000     0          
O1       O      0.492000000000     0.291000000000     0.408500000000     0          
O2       O      0.475400000000     0.309600000000     0.624600000000     0          
O3       O      0.507300000000     0.373700000000     0.310400000000     0          
O4       O      0.476100000000     0.409400000000     0.708800000000     0          
C1       C      0.476000000000     0.339600000000     0.689100000000     0          
C2       C      0.475700000000     0.285800000000     0.755500000000     0          
H1       H      0.475600000000     0.304500000000     0.804200000000     0          
C3       C      0.500000000000     0.309400000000     0.339800000000     0          
C4       C      0.499900000000     0.243300000000     0.286500000000     0          
H2       H      0.499900000000     0.194400000000     0.304600000000     0          
O5       O      0.564700000000     0.423500000000     0.591700000000     0          
O8?      O      0.549600000000     0.440400000000     0.568600000000     0          
Zr1      Zr     0.011880000000     0.362150000000     0.988870000000     0          
O1       O      0.008000000000     0.291000000000     0.091500000000     0          
O2       O      0.024600000000     0.309600000000     0.875400000000     0          
O3       O      0.992700000000     0.373700000000     0.189600000000     0          
O4       O      0.023900000000     0.409400000000     0.791200000000     0          
C1       C      0.024000000000     0.339600000000     0.810900000000     0          
C2       C      0.024300000000     0.285800000000     0.744500000000     0          
H1       H      0.024400000000     0.304500000000     0.695800000000     0          
C3       C      0.000000000000     0.309400000000     0.160200000000     0          
C4       C      0.000100000000     0.243300000000     0.213500000000     0          
H2       H      0.000100000000     0.194400000000     0.195400000000     0          
O5       O      0.935300000000     0.423500000000     0.908300000000     0          
O8?      O      0.950400000000     0.440400000000     0.931400000000     0          
Zr1      Zr     0.488120000000     0.137850000000     0.988870000000     0          
O1       O      0.492000000000     0.209000000000     0.091500000000     0          
O2       O      0.475400000000     0.190400000000     0.875400000000     0          
O3       O      0.507300000000     0.126300000000     0.189600000000     0          
O4       O      0.476100000000     0.090600000000     0.791200000000     0          
C1       C      0.476000000000     0.160400000000     0.810900000000     0          
C2       C      0.475700000000     0.214200000000     0.744500000000     0          
H1       H      0.475600000000     0.195500000000     0.695800000000     0          
C3       C      0.500000000000     0.190600000000     0.160200000000     0          
C4       C      0.499900000000     0.256700000000     0.213500000000     0          
H2       H      0.499900000000     0.305600000000     0.195400000000     0          
O5       O      0.564700000000     0.076500000000     0.908300000000     0          
O8?      O      0.549600000000     0.059600000000     0.931400000000     0          
Zr1      Zr     0.511130000000     0.011880000000     0.137850000000     0          
O1       O      0.408500000000     0.008000000000     0.209000000000     0          
O2       O      0.624600000000     0.024600000000     0.190400000000     0          
O3       O      0.310400000000     0.992700000000     0.126300000000     0          
O4       O      0.708800000000     0.023900000000     0.090600000000     0          
C1       C      0.689100000000     0.024000000000     0.160400000000     0          
C2       C      0.755500000000     0.024300000000     0.214200000000     0          
H1       H      0.804200000000     0.024400000000     0.195500000000     0          
C3       C      0.339800000000     0.000000000000     0.190600000000     0          
C4       C      0.286500000000     0.000100000000     0.256700000000     0          
H2       H      0.304600000000     0.000100000000     0.305600000000     0          
O5       O      0.591700000000     0.935300000000     0.076500000000     0          
O8?      O      0.568600000000     0.950400000000     0.059600000000     0          
Zr1      Zr     0.511130000000     0.488120000000     0.362150000000     0          
O1       O      0.408500000000     0.492000000000     0.291000000000     0          
O2       O      0.624600000000     0.475400000000     0.309600000000     0          
O3       O      0.310400000000     0.507300000000     0.373700000000     0          
O4       O      0.708800000000     0.476100000000     0.409400000000     0          
C1       C      0.689100000000     0.476000000000     0.339600000000     0          
C2       C      0.755500000000     0.475700000000     0.285800000000     0          
H1       H      0.804200000000     0.475600000000     0.304500000000     0          
C3       C      0.339800000000     0.500000000000     0.309400000000     0          
C4       C      0.286500000000     0.499900000000     0.243300000000     0          
H2       H      0.304600000000     0.499900000000     0.194400000000     0          
O5       O      0.591700000000     0.564700000000     0.423500000000     0          
O8?      O      0.568600000000     0.549600000000     0.440400000000     0          
Zr1      Zr     0.988870000000     0.011880000000     0.362150000000     0          
O1       O      0.091500000000     0.008000000000     0.291000000000     0          
O2       O      0.875400000000     0.024600000000     0.309600000000     0          
O3       O      0.189600000000     0.992700000000     0.373700000000     0          
O4       O      0.791200000000     0.023900000000     0.409400000000     0          
C1       C      0.810900000000     0.024000000000     0.339600000000     0          
C2       C      0.744500000000     0.024300000000     0.285800000000     0          
H1       H      0.695800000000     0.024400000000     0.304500000000     0          
C3       C      0.160200000000     0.000000000000     0.309400000000     0          
C4       C      0.213500000000     0.000100000000     0.243300000000     0          
H2       H      0.195400000000     0.000100000000     0.194400000000     0          
O5       O      0.908300000000     0.935300000000     0.423500000000     0          
O8?      O      0.931400000000     0.950400000000     0.440400000000     0          
Zr1      Zr     0.988870000000     0.488120000000     0.137850000000     0          
O1       O      0.091500000000     0.492000000000     0.209000000000     0          
O2       O      0.875400000000     0.475400000000     0.190400000000     0          
O3       O      0.189600000000     0.507300000000     0.126300000000     0          
O4       O      0.791200000000     0.476100000000     0.090600000000     0          
C1       C      0.810900000000     0.476000000000     0.160400000000     0          
C2       C      0.744500000000     0.475700000000     0.214200000000     0          
H1       H      0.695800000000     0.475600000000     0.195500000000     0          
C3       C      0.160200000000     0.500000000000     0.190600000000     0          
C4       C      0.213500000000     0.499900000000     0.256700000000     0          
H2       H      0.195400000000     0.499900000000     0.305600000000     0          
O5       O      0.908300000000     0.564700000000     0.076500000000     0          
O8?      O      0.931400000000     0.549600000000     0.059600000000     0          
Zr1      Zr     0.862150000000     0.488870000000     0.988120000000     0          
O1       O      0.791000000000     0.591500000000     0.992000000000     0          
O2       O      0.809600000000     0.375400000000     0.975400000000     0          
O3       O      0.873700000000     0.689600000000     0.007300000000     0          
O4       O      0.909400000000     0.291200000000     0.976100000000     0          
C1       C      0.839600000000     0.310900000000     0.976000000000     0          
C2       C      0.785800000000     0.244500000000     0.975700000000     0          
H1       H      0.804500000000     0.195800000000     0.975600000000     0          
C3       C      0.809400000000     0.660200000000     0.000000000000     0          
C4       C      0.743300000000     0.713500000000     0.999900000000     0          
H2       H      0.694400000000     0.695400000000     0.999900000000     0          
O5       O      0.923500000000     0.408300000000     0.064700000000     0          
O8?      O      0.940400000000     0.431400000000     0.049600000000     0          
O6       O      0.921500000000     0.578500000000     0.921500000000     0          
O7?      O      0.940400000000     0.559600000000     0.940400000000     0          
Zr1      Zr     0.637850000000     0.011130000000     0.988120000000     0          
O1       O      0.709000000000     0.908500000000     0.992000000000     0          
O2       O      0.690400000000     0.124600000000     0.975400000000     0          
O3       O      0.626300000000     0.810400000000     0.007300000000     0          
O4       O      0.590600000000     0.208800000000     0.976100000000     0          
C1       C      0.660400000000     0.189100000000     0.976000000000     0          
C2       C      0.714200000000     0.255500000000     0.975700000000     0          
H1       H      0.695500000000     0.304200000000     0.975600000000     0          
C3       C      0.690600000000     0.839800000000     0.000000000000     0          
C4       C      0.756700000000     0.786500000000     0.999900000000     0          
H2       H      0.805600000000     0.804600000000     0.999900000000     0          
O5       O      0.576500000000     0.091700000000     0.064700000000     0          
O8?      O      0.559600000000     0.068600000000     0.049600000000     0          
O6       O      0.578500000000     0.921500000000     0.921500000000     0          
O7?      O      0.559600000000     0.940400000000     0.940400000000     0          
Zr1      Zr     0.862150000000     0.011130000000     0.511880000000     0          
O1       O      0.791000000000     0.908500000000     0.508000000000     0          
O2       O      0.809600000000     0.124600000000     0.524600000000     0          
O3       O      0.873700000000     0.810400000000     0.492700000000     0          
O4       O      0.909400000000     0.208800000000     0.523900000000     0          
C1       C      0.839600000000     0.189100000000     0.524000000000     0          
C2       C      0.785800000000     0.255500000000     0.524300000000     0          
H1       H      0.804500000000     0.304200000000     0.524400000000     0          
C3       C      0.809400000000     0.839800000000     0.500000000000     0          
C4       C      0.743300000000     0.786500000000     0.500100000000     0          
H2       H      0.694400000000     0.804600000000     0.500100000000     0          
O5       O      0.923500000000     0.091700000000     0.435300000000     0          
O8?      O      0.940400000000     0.068600000000     0.450400000000     0          
O6       O      0.921500000000     0.921500000000     0.578500000000     0          
O7?      O      0.940400000000     0.940400000000     0.559600000000     0          
Zr1      Zr     0.637850000000     0.488870000000     0.511880000000     0          
O1       O      0.709000000000     0.591500000000     0.508000000000     0          
O2       O      0.690400000000     0.375400000000     0.524600000000     0          
O3       O      0.626300000000     0.689600000000     0.492700000000     0          
O4       O      0.590600000000     0.291200000000     0.523900000000     0          
C1       C      0.660400000000     0.310900000000     0.524000000000     0          
C2       C      0.714200000000     0.244500000000     0.524300000000     0          
H1       H      0.695500000000     0.195800000000     0.524400000000     0          
C3       C      0.690600000000     0.660200000000     0.500000000000     0          
C4       C      0.756700000000     0.713500000000     0.500100000000     0          
H2       H      0.805600000000     0.695400000000     0.500100000000     0          
O5       O      0.576500000000     0.408300000000     0.435300000000     0          
O8?      O      0.559600000000     0.431400000000     0.450400000000     0          
O6       O      0.578500000000     0.578500000000     0.578500000000     0          
O7?      O      0.559600000000     0.559600000000     0.559600000000     0          
Zr1      Zr     0.988120000000     0.862150000000     0.488870000000     0          
O1       O      0.992000000000     0.791000000000     0.591500000000     0          
O2       O      0.975400000000     0.809600000000     0.375400000000     0          
O3       O      0.007300000000     0.873700000000     0.689600000000     0          
O4       O      0.976100000000     0.909400000000     0.291200000000     0          
C1       C      0.976000000000     0.839600000000     0.310900000000     0          
C2       C      0.975700000000     0.785800000000     0.244500000000     0          
H1       H      0.975600000000     0.804500000000     0.195800000000     0          
C3       C      0.000000000000     0.809400000000     0.660200000000     0          
C4       C      0.999900000000     0.743300000000     0.713500000000     0          
H2       H      0.999900000000     0.694400000000     0.695400000000     0          
O5       O      0.064700000000     0.923500000000     0.408300000000     0          
O8?      O      0.049600000000     0.940400000000     0.431400000000     0          
Zr1      Zr     0.511880000000     0.637850000000     0.488870000000     0          
O1       O      0.508000000000     0.709000000000     0.591500000000     0          
O2       O      0.524600000000     0.690400000000     0.375400000000     0          
O3       O      0.492700000000     0.626300000000     0.689600000000     0          
O4       O      0.523900000000     0.590600000000     0.291200000000     0          
C1       C      0.524000000000     0.660400000000     0.310900000000     0          
C2       C      0.524300000000     0.714200000000     0.244500000000     0          
H1       H      0.524400000000     0.695500000000     0.195800000000     0          
C3       C      0.500000000000     0.690600000000     0.660200000000     0          
C4       C      0.500100000000     0.756700000000     0.713500000000     0          
H2       H      0.500100000000     0.805600000000     0.695400000000     0          
O5       O      0.435300000000     0.576500000000     0.408300000000     0          
O8?      O      0.450400000000     0.559600000000     0.431400000000     0          
Zr1      Zr     0.988120000000     0.637850000000     0.011130000000     0          
O1       O      0.992000000000     0.709000000000     0.908500000000     0          
O2       O      0.975400000000     0.690400000000     0.124600000000     0          
O3       O      0.007300000000     0.626300000000     0.810400000000     0          
O4       O      0.976100000000     0.590600000000     0.208800000000     0          
C1       C      0.976000000000     0.660400000000     0.189100000000     0          
C2       C      0.975700000000     0.714200000000     0.255500000000     0          
H1       H      0.975600000000     0.695500000000     0.304200000000     0          
C3       C      0.000000000000     0.690600000000     0.839800000000     0          
C4       C      0.999900000000     0.756700000000     0.786500000000     0          
H2       H      0.999900000000     0.805600000000     0.804600000000     0          
O5       O      0.064700000000     0.576500000000     0.091700000000     0          
O8?      O      0.049600000000     0.559600000000     0.068600000000     0          
Zr1      Zr     0.511880000000     0.862150000000     0.011130000000     0          
O1       O      0.508000000000     0.791000000000     0.908500000000     0          
O2       O      0.524600000000     0.809600000000     0.124600000000     0          
O3       O      0.492700000000     0.873700000000     0.810400000000     0          
O4       O      0.523900000000     0.909400000000     0.208800000000     0          
C1       C      0.524000000000     0.839600000000     0.189100000000     0          
C2       C      0.524300000000     0.785800000000     0.255500000000     0          
H1       H      0.524400000000     0.804500000000     0.304200000000     0          
C3       C      0.500000000000     0.809400000000     0.839800000000     0          
C4       C      0.500100000000     0.743300000000     0.786500000000     0          
H2       H      0.500100000000     0.694400000000     0.804600000000     0          
O5       O      0.435300000000     0.923500000000     0.091700000000     0          
O8?      O      0.450400000000     0.940400000000     0.068600000000     0          
Zr1      Zr     0.488870000000     0.988120000000     0.862150000000     0          
O1       O      0.591500000000     0.992000000000     0.791000000000     0          
O2       O      0.375400000000     0.975400000000     0.809600000000     0          
O3       O      0.689600000000     0.007300000000     0.873700000000     0          
O4       O      0.291200000000     0.976100000000     0.909400000000     0          
C1       C      0.310900000000     0.976000000000     0.839600000000     0          
C2       C      0.244500000000     0.975700000000     0.785800000000     0          
H1       H      0.195800000000     0.975600000000     0.804500000000     0          
C3       C      0.660200000000     0.000000000000     0.809400000000     0          
C4       C      0.713500000000     0.999900000000     0.743300000000     0          
H2       H      0.695400000000     0.999900000000     0.694400000000     0          
O5       O      0.408300000000     0.064700000000     0.923500000000     0          
O8?      O      0.431400000000     0.049600000000     0.940400000000     0          
Zr1      Zr     0.488870000000     0.511880000000     0.637850000000     0          
O1       O      0.591500000000     0.508000000000     0.709000000000     0          
O2       O      0.375400000000     0.524600000000     0.690400000000     0          
O3       O      0.689600000000     0.492700000000     0.626300000000     0          
O4       O      0.291200000000     0.523900000000     0.590600000000     0          
C1       C      0.310900000000     0.524000000000     0.660400000000     0          
C2       C      0.244500000000     0.524300000000     0.714200000000     0          
H1       H      0.195800000000     0.524400000000     0.695500000000     0          
C3       C      0.660200000000     0.500000000000     0.690600000000     0          
C4       C      0.713500000000     0.500100000000     0.756700000000     0          
H2       H      0.695400000000     0.500100000000     0.805600000000     0          
O5       O      0.408300000000     0.435300000000     0.576500000000     0          
O8?      O      0.431400000000     0.450400000000     0.559600000000     0          
Zr1      Zr     0.011130000000     0.988120000000     0.637850000000     0          
O1       O      0.908500000000     0.992000000000     0.709000000000     0          
O2       O      0.124600000000     0.975400000000     0.690400000000     0          
O3       O      0.810400000000     0.007300000000     0.626300000000     0          
O4       O      0.208800000000     0.976100000000     0.590600000000     0          
C1       C      0.189100000000     0.976000000000     0.660400000000     0          
C2       C      0.255500000000     0.975700000000     0.714200000000     0          
H1       H      0.304200000000     0.975600000000     0.695500000000     0          
C3       C      0.839800000000     0.000000000000     0.690600000000     0          
C4       C      0.786500000000     0.999900000000     0.756700000000     0          
H2       H      0.804600000000     0.999900000000     0.805600000000     0          
O5       O      0.091700000000     0.064700000000     0.576500000000     0          
O8?      O      0.068600000000     0.049600000000     0.559600000000     0          
Zr1      Zr     0.011130000000     0.511880000000     0.862150000000     0          
O1       O      0.908500000000     0.508000000000     0.791000000000     0          
O2       O      0.124600000000     0.524600000000     0.809600000000     0          
O3       O      0.810400000000     0.492700000000     0.873700000000     0          
O4       O      0.208800000000     0.523900000000     0.909400000000     0          
C1       C      0.189100000000     0.524000000000     0.839600000000     0          
C2       C      0.255500000000     0.524300000000     0.785800000000     0          
H1       H      0.304200000000     0.524400000000     0.804500000000     0          
C3       C      0.839800000000     0.500000000000     0.809400000000     0          
C4       C      0.786500000000     0.500100000000     0.743300000000     0          
H2       H      0.804600000000     0.500100000000     0.694400000000     0          
O5       O      0.091700000000     0.435300000000     0.923500000000     0          
O8?      O      0.068600000000     0.450400000000     0.940400000000     0          


