data_BOHWIG

_audit_creation_method RASPA-1.0
_audit_creation_date 2020-11-2
_audit_author_name 'Rocio Bueno-Perez'

_cell_length_a    14.6766
_cell_length_b    14.6766
_cell_length_c    28.0033
_cell_angle_alpha 90
_cell_angle_beta  90
_cell_angle_gamma 90
_cell_volume      6031.98

_symmetry_cell_setting          triclinic
_symmetry_space_group_name_Hall 'P 1'
_symmetry_space_group_name_H-M  'P 1'
_symmetry_Int_Tables_number     1

_symmetry_equiv_pos_as_xyz 'x,y,z'

loop_
_atom_site_label
_atom_site_type_symbol
_atom_site_fract_x
_atom_site_fract_y
_atom_site_fract_z
_atom_site_charge
O1       O      0.122800000000     0.036100000000     0.128010000000     0          
O2       O      0.876000000000     0.062900000000     0.047400000000     0          
O3       O      0.226500000000     0.073100000000     0.073100000000     0          
C4       C      0.275800000000     0.048200000000     0.152020000000     0          
C5       C      0.261730000000     0.994100000000     0.192070000000     0          
H6       H      0.204000000000     0.966700000000     0.197300000000     0          
C7       C      0.332170000000     0.980100000000     0.224430000000     0          
H8       H      0.322600000000     0.943100000000     0.251800000000     0          
C9       C      0.416680000000     0.020300000000     0.216740000000     0          
C10      C      0.430750000000     0.074400000000     0.176680000000     0          
H11      H      0.488500000000     0.101900000000     0.171400000000     0          
C12      C      0.360310000000     0.088400000000     0.144320000000     0          
H13      H      0.369900000000     0.125400000000     0.116900000000     0          
C14      C      0.202800000000     0.053500000000     0.114550000000     0          
O15      O      0.910800000000     0.045500000000     0.037000000000     0          
C16      C      0.225000000000     0.239000000000     0.037200000000     0          
O17      O      0.182900000000     0.257300000000     0.076100000000     0          
O18      O      0.622800000000     0.536100000000     0.628010000000     0          
O19      O      0.376000000000     0.562900000000     0.547400000000     0          
O20      O      0.726500000000     0.573100000000     0.573100000000     0          
C21      C      0.775800000000     0.548200000000     0.652020000000     0          
C22      C      0.761730000000     0.494100000000     0.692070000000     0          
H23      H      0.704000000000     0.466700000000     0.697300000000     0          
C24      C      0.832170000000     0.480100000000     0.724430000000     0          
H25      H      0.822600000000     0.443100000000     0.751800000000     0          
C26      C      0.916680000000     0.520300000000     0.716740000000     0          
C27      C      0.930750000000     0.574400000000     0.676680000000     0          
H28      H      0.988500000000     0.601900000000     0.671400000000     0          
C29      C      0.860310000000     0.588400000000     0.644320000000     0          
H30      H      0.869900000000     0.625400000000     0.616900000000     0          
C31      C      0.702800000000     0.553500000000     0.614550000000     0          
O32      O      0.410800000000     0.545500000000     0.537000000000     0          
C33      C      0.725000000000     0.739000000000     0.537200000000     0          
O34      O      0.682900000000     0.757300000000     0.576100000000     0          
O35      O      0.877200000000     0.963900000000     0.128010000000     0          
O36      O      0.124000000000     0.937100000000     0.047400000000     0          
O37      O      0.773500000000     0.926900000000     0.073100000000     0          
C38      C      0.724200000000     0.951800000000     0.152020000000     0          
C39      C      0.738270000000     0.005900000000     0.192070000000     0          
H40      H      0.796000000000     0.033300000000     0.197300000000     0          
C41      C      0.667830000000     0.019900000000     0.224430000000     0          
H42      H      0.677400000000     0.056900000000     0.251800000000     0          
C43      C      0.583320000000     0.979700000000     0.216740000000     0          
C44      C      0.569250000000     0.925600000000     0.176680000000     0          
H45      H      0.511500000000     0.898100000000     0.171400000000     0          
C46      C      0.639690000000     0.911600000000     0.144320000000     0          
H47      H      0.630100000000     0.874600000000     0.116900000000     0          
C48      C      0.797200000000     0.946500000000     0.114550000000     0          
O49      O      0.089200000000     0.954500000000     0.037000000000     0          
C50      C      0.775000000000     0.761000000000     0.037200000000     0          
O51      O      0.817100000000     0.742700000000     0.076100000000     0          
O52      O      0.377200000000     0.463900000000     0.628010000000     0          
O53      O      0.624000000000     0.437100000000     0.547400000000     0          
O54      O      0.273500000000     0.426900000000     0.573100000000     0          
C55      C      0.224200000000     0.451800000000     0.652020000000     0          
C56      C      0.238270000000     0.505900000000     0.692070000000     0          
H57      H      0.296000000000     0.533300000000     0.697300000000     0          
C58      C      0.167830000000     0.519900000000     0.724430000000     0          
H59      H      0.177400000000     0.556900000000     0.751800000000     0          
C60      C      0.083320000000     0.479700000000     0.716740000000     0          
C61      C      0.069250000000     0.425600000000     0.676680000000     0          
H62      H      0.011500000000     0.398100000000     0.671400000000     0          
C63      C      0.139690000000     0.411600000000     0.644320000000     0          
H64      H      0.130100000000     0.374600000000     0.616900000000     0          
C65      C      0.297200000000     0.446500000000     0.614550000000     0          
O66      O      0.589200000000     0.454500000000     0.537000000000     0          
O67      O      0.963900000000     0.122800000000     0.128010000000     0          
O68      O      0.937100000000     0.876000000000     0.047400000000     0          
O69      O      0.926900000000     0.226500000000     0.073100000000     0          
C70      C      0.951800000000     0.275800000000     0.152020000000     0          
C71      C      0.005900000000     0.261730000000     0.192070000000     0          
H72      H      0.033300000000     0.204000000000     0.197300000000     0          
C73      C      0.019900000000     0.332170000000     0.224430000000     0          
H74      H      0.056900000000     0.322600000000     0.251800000000     0          
C75      C      0.979700000000     0.416680000000     0.216740000000     0          
C76      C      0.925600000000     0.430750000000     0.176680000000     0          
H77      H      0.898100000000     0.488500000000     0.171400000000     0          
C78      C      0.911600000000     0.360310000000     0.144320000000     0          
H79      H      0.874600000000     0.369900000000     0.116900000000     0          
C80      C      0.946500000000     0.202800000000     0.114550000000     0          
O81      O      0.954500000000     0.910800000000     0.037000000000     0          
C82      C      0.761000000000     0.225000000000     0.037200000000     0          
O83      O      0.742700000000     0.182900000000     0.076100000000     0          
O84      O      0.463900000000     0.622800000000     0.628010000000     0          
O85      O      0.437100000000     0.376000000000     0.547400000000     0          
O86      O      0.426900000000     0.726500000000     0.573100000000     0          
C87      C      0.451800000000     0.775800000000     0.652020000000     0          
C88      C      0.505900000000     0.761730000000     0.692070000000     0          
H89      H      0.533300000000     0.704000000000     0.697300000000     0          
C90      C      0.519900000000     0.832170000000     0.724430000000     0          
H91      H      0.556900000000     0.822600000000     0.751800000000     0          
C92      C      0.479700000000     0.916680000000     0.716740000000     0          
C93      C      0.425600000000     0.930750000000     0.676680000000     0          
H94      H      0.398100000000     0.988500000000     0.671400000000     0          
C95      C      0.411600000000     0.860310000000     0.644320000000     0          
H96      H      0.374600000000     0.869900000000     0.616900000000     0          
C97      C      0.446500000000     0.702800000000     0.614550000000     0          
O98      O      0.454500000000     0.410800000000     0.537000000000     0          
C99      C      0.261000000000     0.725000000000     0.537200000000     0          
O100     O      0.242700000000     0.682900000000     0.576100000000     0          
O101     O      0.036100000000     0.877200000000     0.128010000000     0          
O102     O      0.062900000000     0.124000000000     0.047400000000     0          
O103     O      0.073100000000     0.773500000000     0.073100000000     0          
C104     C      0.048200000000     0.724200000000     0.152020000000     0          
C105     C      0.994100000000     0.738270000000     0.192070000000     0          
H106     H      0.966700000000     0.796000000000     0.197300000000     0          
C107     C      0.980100000000     0.667830000000     0.224430000000     0          
H108     H      0.943100000000     0.677400000000     0.251800000000     0          
C109     C      0.020300000000     0.583320000000     0.216740000000     0          
C110     C      0.074400000000     0.569250000000     0.176680000000     0          
H111     H      0.101900000000     0.511500000000     0.171400000000     0          
C112     C      0.088400000000     0.639690000000     0.144320000000     0          
H113     H      0.125400000000     0.630100000000     0.116900000000     0          
C114     C      0.053500000000     0.797200000000     0.114550000000     0          
O115     O      0.045500000000     0.089200000000     0.037000000000     0          
O116     O      0.536100000000     0.377200000000     0.628010000000     0          
O117     O      0.562900000000     0.624000000000     0.547400000000     0          
O118     O      0.573100000000     0.273500000000     0.573100000000     0          
C119     C      0.548200000000     0.224200000000     0.652020000000     0          
C120     C      0.494100000000     0.238270000000     0.692070000000     0          
H121     H      0.466700000000     0.296000000000     0.697300000000     0          
C122     C      0.480100000000     0.167830000000     0.724430000000     0          
H123     H      0.443100000000     0.177400000000     0.751800000000     0          
C124     C      0.520300000000     0.083320000000     0.716740000000     0          
C125     C      0.574400000000     0.069250000000     0.676680000000     0          
H126     H      0.601900000000     0.011500000000     0.671400000000     0          
C127     C      0.588400000000     0.139690000000     0.644320000000     0          
H128     H      0.625400000000     0.130100000000     0.616900000000     0          
C129     C      0.553500000000     0.297200000000     0.614550000000     0          
O130     O      0.416000000000     0.072400000000     0.492200000000     0          
C131     C      0.444000000000     0.147800000000     0.476900000000     0          
O132     O      0.545500000000     0.589200000000     0.537000000000     0          
O133     O      0.877200000000     0.963900000000     0.871990000000     0          
O134     O      0.124000000000     0.937100000000     0.952600000000     0          
O135     O      0.773500000000     0.926900000000     0.926900000000     0          
C136     C      0.724200000000     0.951800000000     0.847980000000     0          
C137     C      0.738270000000     0.005900000000     0.807930000000     0          
H138     H      0.796000000000     0.033300000000     0.802700000000     0          
C139     C      0.667830000000     0.019900000000     0.775570000000     0          
H140     H      0.677400000000     0.056900000000     0.748200000000     0          
C141     C      0.583320000000     0.979700000000     0.783260000000     0          
C142     C      0.569250000000     0.925600000000     0.823320000000     0          
H143     H      0.511500000000     0.898100000000     0.828600000000     0          
C144     C      0.639690000000     0.911600000000     0.855680000000     0          
H145     H      0.630100000000     0.874600000000     0.883100000000     0          
C146     C      0.797200000000     0.946500000000     0.885450000000     0          
O147     O      0.572400000000     0.084000000000     0.007800000000     0          
C148     C      0.647800000000     0.056000000000     0.023100000000     0          
O149     O      0.089200000000     0.954500000000     0.963000000000     0          
O150     O      0.377200000000     0.463900000000     0.371990000000     0          
O151     O      0.624000000000     0.437100000000     0.452600000000     0          
O152     O      0.273500000000     0.426900000000     0.426900000000     0          
C153     C      0.224200000000     0.451800000000     0.347980000000     0          
C154     C      0.238270000000     0.505900000000     0.307930000000     0          
H155     H      0.296000000000     0.533300000000     0.302700000000     0          
C156     C      0.167830000000     0.519900000000     0.275570000000     0          
H157     H      0.177400000000     0.556900000000     0.248200000000     0          
C158     C      0.083320000000     0.479700000000     0.283260000000     0          
C159     C      0.069250000000     0.425600000000     0.323320000000     0          
H160     H      0.011500000000     0.398100000000     0.328600000000     0          
C161     C      0.139690000000     0.411600000000     0.355680000000     0          
H162     H      0.130100000000     0.374600000000     0.383100000000     0          
C163     C      0.297200000000     0.446500000000     0.385450000000     0          
O164     O      0.072400000000     0.584000000000     0.507800000000     0          
C165     C      0.147800000000     0.556000000000     0.523100000000     0          
O166     O      0.589200000000     0.454500000000     0.463000000000     0          
C167     C      0.275000000000     0.261000000000     0.462800000000     0          
O168     O      0.317100000000     0.242700000000     0.423900000000     0          
O169     O      0.122800000000     0.036100000000     0.871990000000     0          
O170     O      0.876000000000     0.062900000000     0.952600000000     0          
O171     O      0.226500000000     0.073100000000     0.926900000000     0          
C172     C      0.275800000000     0.048200000000     0.847980000000     0          
C173     C      0.261730000000     0.994100000000     0.807930000000     0          
H174     H      0.204000000000     0.966700000000     0.802700000000     0          
C175     C      0.332170000000     0.980100000000     0.775570000000     0          
H176     H      0.322600000000     0.943100000000     0.748200000000     0          
C177     C      0.416680000000     0.020300000000     0.783260000000     0          
C178     C      0.430750000000     0.074400000000     0.823320000000     0          
H179     H      0.488500000000     0.101900000000     0.828600000000     0          
C180     C      0.360310000000     0.088400000000     0.855680000000     0          
H181     H      0.369900000000     0.125400000000     0.883100000000     0          
C182     C      0.202800000000     0.053500000000     0.885450000000     0          
O183     O      0.427600000000     0.916000000000     0.007800000000     0          
C184     C      0.352200000000     0.944000000000     0.023100000000     0          
O185     O      0.910800000000     0.045500000000     0.963000000000     0          
O186     O      0.622800000000     0.536100000000     0.371990000000     0          
O187     O      0.376000000000     0.562900000000     0.452600000000     0          
O188     O      0.726500000000     0.573100000000     0.426900000000     0          
C189     C      0.775800000000     0.548200000000     0.347980000000     0          
C190     C      0.761730000000     0.494100000000     0.307930000000     0          
H191     H      0.704000000000     0.466700000000     0.302700000000     0          
C192     C      0.832170000000     0.480100000000     0.275570000000     0          
H193     H      0.822600000000     0.443100000000     0.248200000000     0          
C194     C      0.916680000000     0.520300000000     0.283260000000     0          
C195     C      0.930750000000     0.574400000000     0.323320000000     0          
H196     H      0.988500000000     0.601900000000     0.328600000000     0          
C197     C      0.860310000000     0.588400000000     0.355680000000     0          
H198     H      0.869900000000     0.625400000000     0.383100000000     0          
C199     C      0.702800000000     0.553500000000     0.385450000000     0          
O200     O      0.927600000000     0.416000000000     0.507800000000     0          
C201     C      0.852200000000     0.444000000000     0.523100000000     0          
O202     O      0.410800000000     0.545500000000     0.463000000000     0          
O203     O      0.036100000000     0.877200000000     0.871990000000     0          
O204     O      0.062900000000     0.124000000000     0.952600000000     0          
O205     O      0.073100000000     0.773500000000     0.926900000000     0          
C206     C      0.048200000000     0.724200000000     0.847980000000     0          
C207     C      0.994100000000     0.738270000000     0.807930000000     0          
H208     H      0.966700000000     0.796000000000     0.802700000000     0          
C209     C      0.980100000000     0.667830000000     0.775570000000     0          
H210     H      0.943100000000     0.677400000000     0.748200000000     0          
C211     C      0.020300000000     0.583320000000     0.783260000000     0          
C212     C      0.074400000000     0.569250000000     0.823320000000     0          
H213     H      0.101900000000     0.511500000000     0.828600000000     0          
C214     C      0.088400000000     0.639690000000     0.855680000000     0          
H215     H      0.125400000000     0.630100000000     0.883100000000     0          
C216     C      0.053500000000     0.797200000000     0.885450000000     0          
O217     O      0.916000000000     0.572400000000     0.007800000000     0          
C218     C      0.944000000000     0.647800000000     0.023100000000     0          
O219     O      0.045500000000     0.089200000000     0.963000000000     0          
C220     C      0.239000000000     0.775000000000     0.962800000000     0          
O221     O      0.257300000000     0.817100000000     0.923900000000     0          
O222     O      0.536100000000     0.377200000000     0.371990000000     0          
O223     O      0.562900000000     0.624000000000     0.452600000000     0          
O224     O      0.573100000000     0.273500000000     0.426900000000     0          
C225     C      0.548200000000     0.224200000000     0.347980000000     0          
C226     C      0.494100000000     0.238270000000     0.307930000000     0          
H227     H      0.466700000000     0.296000000000     0.302700000000     0          
C228     C      0.480100000000     0.167830000000     0.275570000000     0          
H229     H      0.443100000000     0.177400000000     0.248200000000     0          
C230     C      0.520300000000     0.083320000000     0.283260000000     0          
C231     C      0.574400000000     0.069250000000     0.323320000000     0          
H232     H      0.601900000000     0.011500000000     0.328600000000     0          
C233     C      0.588400000000     0.139690000000     0.355680000000     0          
H234     H      0.625400000000     0.130100000000     0.383100000000     0          
C235     C      0.553500000000     0.297200000000     0.385450000000     0          
O236     O      0.545500000000     0.589200000000     0.463000000000     0          
C237     C      0.739000000000     0.275000000000     0.462800000000     0          
O238     O      0.757300000000     0.317100000000     0.423900000000     0          
O239     O      0.963900000000     0.122800000000     0.871990000000     0          
O240     O      0.937100000000     0.876000000000     0.952600000000     0          
O241     O      0.926900000000     0.226500000000     0.926900000000     0          
C242     C      0.951800000000     0.275800000000     0.847980000000     0          
C243     C      0.005900000000     0.261730000000     0.807930000000     0          
H244     H      0.033300000000     0.204000000000     0.802700000000     0          
C245     C      0.019900000000     0.332170000000     0.775570000000     0          
H246     H      0.056900000000     0.322600000000     0.748200000000     0          
C247     C      0.979700000000     0.416680000000     0.783260000000     0          
C248     C      0.925600000000     0.430750000000     0.823320000000     0          
H249     H      0.898100000000     0.488500000000     0.828600000000     0          
C250     C      0.911600000000     0.360310000000     0.855680000000     0          
H251     H      0.874600000000     0.369900000000     0.883100000000     0          
C252     C      0.946500000000     0.202800000000     0.885450000000     0          
O253     O      0.084000000000     0.427600000000     0.007800000000     0          
C254     C      0.056000000000     0.352200000000     0.023100000000     0          
O255     O      0.954500000000     0.910800000000     0.963000000000     0          
O256     O      0.463900000000     0.622800000000     0.371990000000     0          
O257     O      0.437100000000     0.376000000000     0.452600000000     0          
O258     O      0.426900000000     0.726500000000     0.426900000000     0          
C259     C      0.451800000000     0.775800000000     0.347980000000     0          
C260     C      0.505900000000     0.761730000000     0.307930000000     0          
H261     H      0.533300000000     0.704000000000     0.302700000000     0          
C262     C      0.519900000000     0.832170000000     0.275570000000     0          
H263     H      0.556900000000     0.822600000000     0.248200000000     0          
C264     C      0.479700000000     0.916680000000     0.283260000000     0          
C265     C      0.425600000000     0.930750000000     0.323320000000     0          
H266     H      0.398100000000     0.988500000000     0.328600000000     0          
C267     C      0.411600000000     0.860310000000     0.355680000000     0          
H268     H      0.374600000000     0.869900000000     0.383100000000     0          
C269     C      0.446500000000     0.702800000000     0.385450000000     0          
O270     O      0.584000000000     0.927600000000     0.507800000000     0          
C271     C      0.556000000000     0.852200000000     0.523100000000     0          
O272     O      0.454500000000     0.410800000000     0.463000000000     0          
Zr273    Zr     0.000000000000     0.000000000000     0.087720000000     0          
Zr274    Zr     0.500000000000     0.500000000000     0.587720000000     0          
Zr275    Zr     0.000000000000     0.000000000000     0.912280000000     0          
Zr276    Zr     0.500000000000     0.500000000000     0.412280000000     0          
Zr277    Zr     0.162110000000     0.053580000000     0.000000000000     0          
O278     O      0.293100000000     0.979000000000     0.000000000000     0          
O279     O      0.225700000000     0.188500000000     0.000000000000     0          
Zr280    Zr     0.662110000000     0.553580000000     0.500000000000     0          
O281     O      0.793100000000     0.479000000000     0.500000000000     0          
O282     O      0.725700000000     0.688500000000     0.500000000000     0          
Zr283    Zr     0.837890000000     0.946420000000     0.000000000000     0          
O284     O      0.706900000000     0.021000000000     0.000000000000     0          
O285     O      0.774300000000     0.811500000000     0.000000000000     0          
Zr286    Zr     0.337890000000     0.446420000000     0.500000000000     0          
O287     O      0.206900000000     0.521000000000     0.500000000000     0          
O288     O      0.274300000000     0.311500000000     0.500000000000     0          
Zr289    Zr     0.946420000000     0.162110000000     0.000000000000     0          
O290     O      0.021000000000     0.293100000000     0.000000000000     0          
O291     O      0.811500000000     0.225700000000     0.000000000000     0          
Zr292    Zr     0.446420000000     0.662110000000     0.500000000000     0          
O293     O      0.521000000000     0.793100000000     0.500000000000     0          
O294     O      0.311500000000     0.725700000000     0.500000000000     0          
Zr295    Zr     0.053580000000     0.837890000000     0.000000000000     0          
O296     O      0.979000000000     0.706900000000     0.000000000000     0          
O297     O      0.188500000000     0.774300000000     0.000000000000     0          
Zr298    Zr     0.553580000000     0.337890000000     0.500000000000     0          
O299     O      0.479000000000     0.206900000000     0.500000000000     0          
O300     O      0.688500000000     0.274300000000     0.500000000000     0          
C301     C      0.500000000000     0.000000000000     0.250000000000     0          
C302     C      0.000000000000     0.500000000000     0.250000000000     0          
C303     C      0.500000000000     0.000000000000     0.750000000000     0          
C304     C      0.000000000000     0.500000000000     0.750000000000     0          


