data_DEFSUF

_audit_creation_method RASPA-1.0
_audit_creation_date 2020-11-2
_audit_author_name 'Rocio Bueno-Perez'

_cell_length_a    23.0842
_cell_length_b    23.0842
_cell_length_c    18.7738
_cell_angle_alpha 90
_cell_angle_beta  90
_cell_angle_gamma 90
_cell_volume      10004.2

_symmetry_cell_setting          triclinic
_symmetry_space_group_name_Hall 'P 1'
_symmetry_space_group_name_H-M  'P 1'
_symmetry_Int_Tables_number     1

_symmetry_equiv_pos_as_xyz 'x,y,z'

loop_
_atom_site_label
_atom_site_type_symbol
_atom_site_fract_x
_atom_site_fract_y
_atom_site_fract_z
_atom_site_charge
O1       O      0.343760000000     0.058920000000     0.073000000000     0          
O2       O      0.416140000000     0.108200000000     0.134500000000     0          
C3       C      0.239400000000     0.198800000000     0.231100000000     0          
C4       C      0.297100000000     0.199100000000     0.251100000000     0          
C5       C      0.337000000000     0.164800000000     0.215200000000     0          
H6       H      0.376500000000     0.165100000000     0.229100000000     0          
C7       C      0.318900000000     0.130200000000     0.159000000000     0          
C8       C      0.261300000000     0.129500000000     0.139100000000     0          
H9       H      0.249100000000     0.105500000000     0.100900000000     0          
C10      C      0.221000000000     0.164100000000     0.174900000000     0          
C11      C      0.363600000000     0.095900000000     0.119100000000     0          
H12      H      0.309500000000     0.222900000000     0.289600000000     0          
C13      C      0.159100000000     0.161200000000     0.149300000000     0          
H14      H      0.156300000000     0.134100000000     0.109400000000     0          
H15      H      0.134100000000     0.148000000000     0.188300000000     0          
H16      H      0.146600000000     0.199800000000     0.133700000000     0          
O17      O      0.656240000000     0.941080000000     0.073000000000     0          
O18      O      0.583860000000     0.891800000000     0.134500000000     0          
C19      C      0.760600000000     0.801200000000     0.231100000000     0          
C20      C      0.702900000000     0.800900000000     0.251100000000     0          
C21      C      0.663000000000     0.835200000000     0.215200000000     0          
H22      H      0.623500000000     0.834900000000     0.229100000000     0          
C23      C      0.681100000000     0.869800000000     0.159000000000     0          
C24      C      0.738700000000     0.870500000000     0.139100000000     0          
H25      H      0.750900000000     0.894500000000     0.100900000000     0          
C26      C      0.779000000000     0.835900000000     0.174900000000     0          
C27      C      0.636400000000     0.904100000000     0.119100000000     0          
H28      H      0.690500000000     0.777100000000     0.289600000000     0          
C29      C      0.840900000000     0.838800000000     0.149300000000     0          
H30      H      0.843700000000     0.865900000000     0.109400000000     0          
H31      H      0.865900000000     0.852000000000     0.188300000000     0          
H32      H      0.853400000000     0.800200000000     0.133700000000     0          
N33      N      0.367300000000     0.536000000000     0.950500000000     0          
N34      N      0.322000000000     0.517000000000     0.972000000000     0          
H35      H      0.395400000000     0.563700000000     0.048900000000     0          
O36      O      0.941080000000     0.343760000000     0.573000000000     0          
O37      O      0.891800000000     0.416140000000     0.634500000000     0          
C38      C      0.801200000000     0.239400000000     0.731100000000     0          
C39      C      0.800900000000     0.297100000000     0.751100000000     0          
C40      C      0.835200000000     0.337000000000     0.715200000000     0          
H41      H      0.834900000000     0.376500000000     0.729100000000     0          
C42      C      0.869800000000     0.318900000000     0.659000000000     0          
C43      C      0.870500000000     0.261300000000     0.639100000000     0          
H44      H      0.894500000000     0.249100000000     0.600900000000     0          
C45      C      0.835900000000     0.221000000000     0.674900000000     0          
C46      C      0.904100000000     0.363600000000     0.619100000000     0          
H47      H      0.777100000000     0.309500000000     0.789600000000     0          
C48      C      0.838800000000     0.159100000000     0.649300000000     0          
H49      H      0.865900000000     0.156300000000     0.609400000000     0          
H50      H      0.852000000000     0.134100000000     0.688300000000     0          
H51      H      0.800200000000     0.146600000000     0.633700000000     0          
H52      H      0.603500000000     0.581600000000     0.486000000000     0          
O53      O      0.058920000000     0.656240000000     0.573000000000     0          
O54      O      0.108200000000     0.583860000000     0.634500000000     0          
C55      C      0.198800000000     0.760600000000     0.731100000000     0          
C56      C      0.199100000000     0.702900000000     0.751100000000     0          
C57      C      0.164800000000     0.663000000000     0.715200000000     0          
H58      H      0.165100000000     0.623500000000     0.729100000000     0          
C59      C      0.130200000000     0.681100000000     0.659000000000     0          
C60      C      0.129500000000     0.738700000000     0.639100000000     0          
H61      H      0.105500000000     0.750900000000     0.600900000000     0          
C62      C      0.164100000000     0.779000000000     0.674900000000     0          
H63      H      0.163900000000     0.818500000000     0.661000000000     0          
C64      C      0.095900000000     0.636400000000     0.619100000000     0          
C65      C      0.235200000000     0.678700000000     0.811300000000     0          
H66      H      0.228300000000     0.637000000000     0.815500000000     0          
H67      H      0.276300000000     0.685700000000     0.801500000000     0          
H68      H      0.224400000000     0.697900000000     0.856000000000     0          
O69      O      0.656240000000     0.058920000000     0.927000000000     0          
O70      O      0.583860000000     0.108200000000     0.865500000000     0          
C71      C      0.760600000000     0.198800000000     0.768900000000     0          
C72      C      0.702900000000     0.199100000000     0.748900000000     0          
C73      C      0.663000000000     0.164800000000     0.784800000000     0          
H74      H      0.623500000000     0.165100000000     0.770900000000     0          
C75      C      0.681100000000     0.130200000000     0.841000000000     0          
C76      C      0.738700000000     0.129500000000     0.860900000000     0          
H77      H      0.750900000000     0.105500000000     0.899100000000     0          
C78      C      0.779000000000     0.164100000000     0.825100000000     0          
H79      H      0.818500000000     0.163900000000     0.839000000000     0          
C80      C      0.636400000000     0.095900000000     0.880900000000     0          
C81      C      0.678700000000     0.235200000000     0.688700000000     0          
H82      H      0.637000000000     0.228300000000     0.684500000000     0          
H83      H      0.685700000000     0.276300000000     0.698500000000     0          
H84      H      0.697900000000     0.224400000000     0.644000000000     0          
O85      O      0.343760000000     0.941080000000     0.927000000000     0          
O86      O      0.416140000000     0.891800000000     0.865500000000     0          
C87      C      0.239400000000     0.801200000000     0.768900000000     0          
C88      C      0.297100000000     0.800900000000     0.748900000000     0          
C89      C      0.337000000000     0.835200000000     0.784800000000     0          
H90      H      0.376500000000     0.834900000000     0.770900000000     0          
C91      C      0.318900000000     0.869800000000     0.841000000000     0          
C92      C      0.261300000000     0.870500000000     0.860900000000     0          
H93      H      0.249100000000     0.894500000000     0.899100000000     0          
C94      C      0.221000000000     0.835900000000     0.825100000000     0          
C95      C      0.363600000000     0.904100000000     0.880900000000     0          
H96      H      0.309500000000     0.777100000000     0.710400000000     0          
C97      C      0.159100000000     0.838800000000     0.850700000000     0          
H98      H      0.156300000000     0.865900000000     0.890600000000     0          
H99      H      0.134100000000     0.852000000000     0.811700000000     0          
H100     H      0.146600000000     0.800200000000     0.866300000000     0          
O101     O      0.058920000000     0.343760000000     0.427000000000     0          
O102     O      0.108200000000     0.416140000000     0.365500000000     0          
C103     C      0.198800000000     0.239400000000     0.268900000000     0          
C104     C      0.199100000000     0.297100000000     0.248900000000     0          
C105     C      0.164800000000     0.337000000000     0.284800000000     0          
H106     H      0.165100000000     0.376500000000     0.270900000000     0          
C107     C      0.130200000000     0.318900000000     0.341000000000     0          
C108     C      0.129500000000     0.261300000000     0.360900000000     0          
H109     H      0.105500000000     0.249100000000     0.399100000000     0          
C110     C      0.164100000000     0.221000000000     0.325100000000     0          
H111     H      0.163900000000     0.181500000000     0.339000000000     0          
C112     C      0.095900000000     0.363600000000     0.380900000000     0          
C113     C      0.235200000000     0.321300000000     0.188700000000     0          
H114     H      0.228300000000     0.363000000000     0.184500000000     0          
H115     H      0.276300000000     0.314300000000     0.198500000000     0          
H116     H      0.224400000000     0.302100000000     0.144000000000     0          
O117     O      0.941080000000     0.656240000000     0.427000000000     0          
O118     O      0.891800000000     0.583860000000     0.365500000000     0          
C119     C      0.801200000000     0.760600000000     0.268900000000     0          
C120     C      0.800900000000     0.702900000000     0.248900000000     0          
C121     C      0.835200000000     0.663000000000     0.284800000000     0          
H122     H      0.834900000000     0.623500000000     0.270900000000     0          
C123     C      0.869800000000     0.681100000000     0.341000000000     0          
C124     C      0.870500000000     0.738700000000     0.360900000000     0          
H125     H      0.894500000000     0.750900000000     0.399100000000     0          
C126     C      0.835900000000     0.779000000000     0.325100000000     0          
H127     H      0.836100000000     0.818500000000     0.339000000000     0          
C128     C      0.904100000000     0.636400000000     0.380900000000     0          
C129     C      0.764800000000     0.678700000000     0.188700000000     0          
H130     H      0.771700000000     0.637000000000     0.184500000000     0          
H131     H      0.723700000000     0.685700000000     0.198500000000     0          
H132     H      0.775600000000     0.697900000000     0.144000000000     0          
O133     O      0.656240000000     0.941080000000     0.927000000000     0          
O134     O      0.583860000000     0.891800000000     0.865500000000     0          
C135     C      0.760600000000     0.801200000000     0.768900000000     0          
C136     C      0.702900000000     0.800900000000     0.748900000000     0          
C137     C      0.663000000000     0.835200000000     0.784800000000     0          
H138     H      0.623500000000     0.834900000000     0.770900000000     0          
C139     C      0.681100000000     0.869800000000     0.841000000000     0          
C140     C      0.738700000000     0.870500000000     0.860900000000     0          
H141     H      0.750900000000     0.894500000000     0.899100000000     0          
C142     C      0.779000000000     0.835900000000     0.825100000000     0          
H143     H      0.818500000000     0.836100000000     0.839000000000     0          
C144     C      0.636400000000     0.904100000000     0.880900000000     0          
C145     C      0.678700000000     0.764800000000     0.688700000000     0          
H146     H      0.637000000000     0.771700000000     0.684500000000     0          
H147     H      0.685700000000     0.723700000000     0.698500000000     0          
H148     H      0.697900000000     0.775600000000     0.644000000000     0          
C149     C      0.471900000000     0.955900000000     0.651300000000     0          
H150     H      0.452700000000     0.925900000000     0.676600000000     0          
C151     C      0.471900000000     0.955900000000     0.576800000000     0          
C152     C      0.441100000000     0.907800000000     0.539100000000     0          
H153     H      0.424200000000     0.881300000000     0.574200000000     0          
H154     H      0.468600000000     0.886600000000     0.509200000000     0          
H155     H      0.410200000000     0.923900000000     0.509200000000     0          
O156     O      0.343760000000     0.058920000000     0.927000000000     0          
O157     O      0.416140000000     0.108200000000     0.865500000000     0          
C158     C      0.239400000000     0.198800000000     0.768900000000     0          
C159     C      0.297100000000     0.199100000000     0.748900000000     0          
C160     C      0.337000000000     0.164800000000     0.784800000000     0          
H161     H      0.376500000000     0.165100000000     0.770900000000     0          
C162     C      0.318900000000     0.130200000000     0.841000000000     0          
C163     C      0.261300000000     0.129500000000     0.860900000000     0          
H164     H      0.249100000000     0.105500000000     0.899100000000     0          
C165     C      0.221000000000     0.164100000000     0.825100000000     0          
H166     H      0.181500000000     0.163900000000     0.839000000000     0          
C167     C      0.363600000000     0.095900000000     0.880900000000     0          
C168     C      0.321300000000     0.235200000000     0.688700000000     0          
H169     H      0.363000000000     0.228300000000     0.684500000000     0          
H170     H      0.314300000000     0.276300000000     0.698500000000     0          
H171     H      0.302100000000     0.224400000000     0.644000000000     0          
C172     C      0.528100000000     0.044100000000     0.651300000000     0          
H173     H      0.547300000000     0.074100000000     0.676600000000     0          
C174     C      0.528100000000     0.044100000000     0.576800000000     0          
H175     H      0.547300000000     0.074100000000     0.551500000000     0          
O176     O      0.058920000000     0.656240000000     0.427000000000     0          
O177     O      0.108200000000     0.583860000000     0.365500000000     0          
C178     C      0.198800000000     0.760600000000     0.268900000000     0          
C179     C      0.199100000000     0.702900000000     0.248900000000     0          
C180     C      0.164800000000     0.663000000000     0.284800000000     0          
H181     H      0.165100000000     0.623500000000     0.270900000000     0          
C182     C      0.130200000000     0.681100000000     0.341000000000     0          
C183     C      0.129500000000     0.738700000000     0.360900000000     0          
H184     H      0.105500000000     0.750900000000     0.399100000000     0          
C185     C      0.164100000000     0.779000000000     0.325100000000     0          
H186     H      0.163900000000     0.818500000000     0.339000000000     0          
C187     C      0.095900000000     0.636400000000     0.380900000000     0          
C188     C      0.235200000000     0.678700000000     0.188700000000     0          
H189     H      0.228300000000     0.637000000000     0.184500000000     0          
H190     H      0.276300000000     0.685700000000     0.198500000000     0          
H191     H      0.224400000000     0.697900000000     0.144000000000     0          
C192     C      0.044100000000     0.471900000000     0.151300000000     0          
H193     H      0.074100000000     0.452700000000     0.176600000000     0          
C194     C      0.044100000000     0.471900000000     0.076800000000     0          
H195     H      0.074100000000     0.452700000000     0.051500000000     0          
O196     O      0.941080000000     0.343760000000     0.427000000000     0          
O197     O      0.891800000000     0.416140000000     0.365500000000     0          
C198     C      0.801200000000     0.239400000000     0.268900000000     0          
C199     C      0.800900000000     0.297100000000     0.248900000000     0          
C200     C      0.835200000000     0.337000000000     0.284800000000     0          
H201     H      0.834900000000     0.376500000000     0.270900000000     0          
C202     C      0.869800000000     0.318900000000     0.341000000000     0          
C203     C      0.870500000000     0.261300000000     0.360900000000     0          
H204     H      0.894500000000     0.249100000000     0.399100000000     0          
C205     C      0.835900000000     0.221000000000     0.325100000000     0          
H206     H      0.836100000000     0.181500000000     0.339000000000     0          
C207     C      0.904100000000     0.363600000000     0.380900000000     0          
C208     C      0.764800000000     0.321300000000     0.188700000000     0          
H209     H      0.771700000000     0.363000000000     0.184500000000     0          
H210     H      0.723700000000     0.314300000000     0.198500000000     0          
H211     H      0.775600000000     0.302100000000     0.144000000000     0          
C212     C      0.955900000000     0.528100000000     0.151300000000     0          
H213     H      0.925900000000     0.547300000000     0.176600000000     0          
C214     C      0.955900000000     0.528100000000     0.076800000000     0          
C215     C      0.907800000000     0.558900000000     0.039100000000     0          
H216     H      0.881300000000     0.575800000000     0.074200000000     0          
N217     N      0.536000000000     0.632700000000     0.549500000000     0          
N218     N      0.517000000000     0.678000000000     0.528000000000     0          
H219     H      0.886600000000     0.531400000000     0.009200000000     0          
H220     H      0.923900000000     0.589800000000     0.009200000000     0          
O221     O      0.343760000000     0.941080000000     0.073000000000     0          
O222     O      0.416140000000     0.891800000000     0.134500000000     0          
C223     C      0.239400000000     0.801200000000     0.231100000000     0          
C224     C      0.297100000000     0.800900000000     0.251100000000     0          
C225     C      0.337000000000     0.835200000000     0.215200000000     0          
H226     H      0.376500000000     0.834900000000     0.229100000000     0          
C227     C      0.318900000000     0.869800000000     0.159000000000     0          
C228     C      0.261300000000     0.870500000000     0.139100000000     0          
H229     H      0.249100000000     0.894500000000     0.100900000000     0          
C230     C      0.221000000000     0.835900000000     0.174900000000     0          
C231     C      0.363600000000     0.904100000000     0.119100000000     0          
C232     C      0.528100000000     0.955900000000     0.348700000000     0          
H233     H      0.547300000000     0.925900000000     0.323400000000     0          
C234     C      0.528100000000     0.955900000000     0.423200000000     0          
H235     H      0.309500000000     0.777100000000     0.289600000000     0          
H236     H      0.547300000000     0.925900000000     0.448500000000     0          
C237     C      0.159100000000     0.838800000000     0.149300000000     0          
H238     H      0.156300000000     0.865900000000     0.109400000000     0          
H239     H      0.134100000000     0.852000000000     0.188300000000     0          
H240     H      0.146600000000     0.800200000000     0.133700000000     0          
O241     O      0.656240000000     0.058920000000     0.073000000000     0          
O242     O      0.583860000000     0.108200000000     0.134500000000     0          
C243     C      0.760600000000     0.198800000000     0.231100000000     0          
C244     C      0.702900000000     0.199100000000     0.251100000000     0          
C245     C      0.663000000000     0.164800000000     0.215200000000     0          
H246     H      0.623500000000     0.165100000000     0.229100000000     0          
C247     C      0.681100000000     0.130200000000     0.159000000000     0          
C248     C      0.738700000000     0.129500000000     0.139100000000     0          
H249     H      0.750900000000     0.105500000000     0.100900000000     0          
C250     C      0.779000000000     0.164100000000     0.174900000000     0          
C251     C      0.636400000000     0.095900000000     0.119100000000     0          
C252     C      0.471900000000     0.044100000000     0.348700000000     0          
H253     H      0.452700000000     0.074100000000     0.323400000000     0          
C254     C      0.471900000000     0.044100000000     0.423200000000     0          
C255     C      0.441100000000     0.092200000000     0.460900000000     0          
H256     H      0.424200000000     0.118700000000     0.425800000000     0          
H257     H      0.690500000000     0.222900000000     0.289600000000     0          
C258     C      0.840900000000     0.161200000000     0.149300000000     0          
H259     H      0.843700000000     0.134100000000     0.109400000000     0          
H260     H      0.865900000000     0.148000000000     0.188300000000     0          
H261     H      0.853400000000     0.199800000000     0.133700000000     0          
H262     H      0.468600000000     0.113400000000     0.490800000000     0          
H263     H      0.410200000000     0.076100000000     0.490800000000     0          
O264     O      0.941080000000     0.656240000000     0.573000000000     0          
O265     O      0.891800000000     0.583860000000     0.634500000000     0          
C266     C      0.801200000000     0.760600000000     0.731100000000     0          
C267     C      0.800900000000     0.702900000000     0.751100000000     0          
C268     C      0.835200000000     0.663000000000     0.715200000000     0          
H269     H      0.834900000000     0.623500000000     0.729100000000     0          
C270     C      0.869800000000     0.681100000000     0.659000000000     0          
C271     C      0.870500000000     0.738700000000     0.639100000000     0          
H272     H      0.894500000000     0.750900000000     0.600900000000     0          
C273     C      0.835900000000     0.779000000000     0.674900000000     0          
C274     C      0.904100000000     0.636400000000     0.619100000000     0          
C275     C      0.955900000000     0.471900000000     0.848700000000     0          
H276     H      0.925900000000     0.452700000000     0.823400000000     0          
C277     C      0.955900000000     0.471900000000     0.923200000000     0          
H278     H      0.777100000000     0.690500000000     0.789600000000     0          
H279     H      0.925900000000     0.452700000000     0.948500000000     0          
C280     C      0.838800000000     0.840900000000     0.649300000000     0          
H281     H      0.865900000000     0.843700000000     0.609400000000     0          
H282     H      0.852000000000     0.865900000000     0.688300000000     0          
H283     H      0.800200000000     0.853400000000     0.633700000000     0          
O284     O      0.058920000000     0.343760000000     0.573000000000     0          
O285     O      0.108200000000     0.416140000000     0.634500000000     0          
C286     C      0.198800000000     0.239400000000     0.731100000000     0          
C287     C      0.199100000000     0.297100000000     0.751100000000     0          
C288     C      0.164800000000     0.337000000000     0.715200000000     0          
H289     H      0.165100000000     0.376500000000     0.729100000000     0          
C290     C      0.130200000000     0.318900000000     0.659000000000     0          
C291     C      0.129500000000     0.261300000000     0.639100000000     0          
H292     H      0.105500000000     0.249100000000     0.600900000000     0          
C293     C      0.164100000000     0.221000000000     0.674900000000     0          
C294     C      0.095900000000     0.363600000000     0.619100000000     0          
C295     C      0.044100000000     0.528100000000     0.848700000000     0          
H296     H      0.074100000000     0.547300000000     0.823400000000     0          
C297     C      0.044100000000     0.528100000000     0.923200000000     0          
C298     C      0.092200000000     0.558900000000     0.960900000000     0          
H299     H      0.118700000000     0.575800000000     0.925800000000     0          
H300     H      0.222900000000     0.309500000000     0.789600000000     0          
C301     C      0.161200000000     0.159100000000     0.649300000000     0          
H302     H      0.134100000000     0.156300000000     0.609400000000     0          
H303     H      0.148000000000     0.134100000000     0.688300000000     0          
H304     H      0.199800000000     0.146600000000     0.633700000000     0          
H305     H      0.113400000000     0.531400000000     0.990800000000     0          
H306     H      0.076100000000     0.589800000000     0.990800000000     0          
Zr307    Zr     0.391990000000     0.000000000000     0.000000000000     0          
Zr308    Zr     0.608010000000     0.000000000000     0.000000000000     0          
Zr309    Zr     0.000000000000     0.391990000000     0.500000000000     0          
Zr310    Zr     0.000000000000     0.608010000000     0.500000000000     0          
Zr311    Zr     0.500000000000     0.075590000000     0.092600000000     0          
O312     O      0.500000000000     0.168700000000     0.062800000000     0          
O313     O      0.500000000000     0.054900000000     0.206800000000     0          
C314     C      0.500000000000     0.284800000000     0.064200000000     0          
H315     H      0.500000000000     0.264100000000     0.107900000000     0          
C316     C      0.500000000000     0.345600000000     0.064200000000     0          
H317     H      0.500000000000     0.366100000000     0.108100000000     0          
Zr318    Zr     0.500000000000     0.924410000000     0.092600000000     0          
O319     O      0.500000000000     0.831300000000     0.062800000000     0          
O320     O      0.500000000000     0.945100000000     0.206800000000     0          
C321     C      0.500000000000     0.715200000000     0.064200000000     0          
H322     H      0.500000000000     0.735900000000     0.107900000000     0          
C323     C      0.500000000000     0.654400000000     0.064200000000     0          
H324     H      0.500000000000     0.633900000000     0.108100000000     0          
Zr325    Zr     0.924410000000     0.500000000000     0.592600000000     0          
O326     O      0.831300000000     0.500000000000     0.562800000000     0          
O327     O      0.945100000000     0.500000000000     0.706800000000     0          
C328     C      0.715200000000     0.500000000000     0.564200000000     0          
H329     H      0.735900000000     0.500000000000     0.607900000000     0          
C330     C      0.654400000000     0.500000000000     0.564200000000     0          
H331     H      0.633900000000     0.500000000000     0.608100000000     0          
Zr332    Zr     0.075590000000     0.500000000000     0.592600000000     0          
O333     O      0.168700000000     0.500000000000     0.562800000000     0          
O334     O      0.054900000000     0.500000000000     0.706800000000     0          
C335     C      0.284800000000     0.500000000000     0.564200000000     0          
H336     H      0.264100000000     0.500000000000     0.607900000000     0          
C337     C      0.345600000000     0.500000000000     0.564200000000     0          
H338     H      0.366100000000     0.500000000000     0.608100000000     0          
Zr339    Zr     0.500000000000     0.075590000000     0.907400000000     0          
O340     O      0.500000000000     0.168700000000     0.937200000000     0          
O341     O      0.500000000000     0.054900000000     0.793200000000     0          
C342     C      0.500000000000     0.284800000000     0.935800000000     0          
H343     H      0.500000000000     0.264100000000     0.892100000000     0          
C344     C      0.500000000000     0.345600000000     0.935800000000     0          
H345     H      0.500000000000     0.366100000000     0.891900000000     0          
Zr346    Zr     0.500000000000     0.924410000000     0.907400000000     0          
O347     O      0.500000000000     0.831300000000     0.937200000000     0          
O348     O      0.500000000000     0.945100000000     0.793200000000     0          
C349     C      0.500000000000     0.715200000000     0.935800000000     0          
H350     H      0.500000000000     0.735900000000     0.892100000000     0          
C351     C      0.500000000000     0.654400000000     0.935800000000     0          
H352     H      0.500000000000     0.633900000000     0.891900000000     0          
Zr353    Zr     0.075590000000     0.500000000000     0.407400000000     0          
O354     O      0.168700000000     0.500000000000     0.437200000000     0          
O355     O      0.054900000000     0.500000000000     0.293200000000     0          
C356     C      0.284800000000     0.500000000000     0.435800000000     0          
H357     H      0.264100000000     0.500000000000     0.392100000000     0          
C358     C      0.345600000000     0.500000000000     0.435800000000     0          
H359     H      0.366100000000     0.500000000000     0.391900000000     0          
Zr360    Zr     0.924410000000     0.500000000000     0.407400000000     0          
O361     O      0.831300000000     0.500000000000     0.437200000000     0          
O362     O      0.945100000000     0.500000000000     0.293200000000     0          
C363     C      0.715200000000     0.500000000000     0.435800000000     0          
H364     H      0.735900000000     0.500000000000     0.392100000000     0          
C365     C      0.654400000000     0.500000000000     0.435800000000     0          
H366     H      0.633900000000     0.500000000000     0.391900000000     0          
O367     O      0.447000000000     0.000000000000     0.092200000000     0          
O368     O      0.553000000000     0.000000000000     0.092200000000     0          
O369     O      0.000000000000     0.447000000000     0.592200000000     0          
O370     O      0.000000000000     0.553000000000     0.592200000000     0          
O371     O      0.553000000000     0.000000000000     0.907800000000     0          
O372     O      0.447000000000     0.000000000000     0.907800000000     0          
O373     O      0.000000000000     0.447000000000     0.407800000000     0          
O374     O      0.000000000000     0.553000000000     0.407800000000     0          
O375     O      0.446800000000     0.074800000000     0.000000000000     0          
O376     O      0.553200000000     0.925200000000     0.000000000000     0          
C377     C      0.520000000000     0.560440000000     0.000000000000     0          
C378     C      0.572400000000     0.530070000000     0.000000000000     0          
H379     H      0.608000000000     0.550600000000     0.000000000000     0          
C380     C      0.411400000000     0.562800000000     0.000000000000     0          
C381     C      0.467800000000     0.530120000000     0.000000000000     0          
O382     O      0.925200000000     0.446800000000     0.500000000000     0          
C383     C      0.560440000000     0.480000000000     0.500000000000     0          
C384     C      0.530070000000     0.427600000000     0.500000000000     0          
H385     H      0.550600000000     0.392000000000     0.500000000000     0          
C386     C      0.562800000000     0.588600000000     0.500000000000     0          
C387     C      0.530120000000     0.532200000000     0.500000000000     0          
O388     O      0.074800000000     0.553200000000     0.500000000000     0          
O389     O      0.553200000000     0.074800000000     0.000000000000     0          
C390     C      0.520000000000     0.439560000000     0.000000000000     0          
C391     C      0.572400000000     0.469930000000     0.000000000000     0          
H392     H      0.432100000000     0.449300000000     0.000000000000     0          
H393     H      0.608000000000     0.449400000000     0.000000000000     0          
C394     C      0.467800000000     0.469880000000     0.000000000000     0          
O395     O      0.446800000000     0.925200000000     0.000000000000     0          
H396     H      0.378600000000     0.604800000000     0.000000000000     0          
O397     O      0.074800000000     0.446800000000     0.500000000000     0          
C398     C      0.439560000000     0.480000000000     0.500000000000     0          
C399     C      0.469930000000     0.427600000000     0.500000000000     0          
H400     H      0.449300000000     0.567900000000     0.500000000000     0          
H401     H      0.449400000000     0.392000000000     0.500000000000     0          
C402     C      0.469880000000     0.532200000000     0.500000000000     0          
O403     O      0.925200000000     0.553200000000     0.500000000000     0          
H404     H      0.604800000000     0.621400000000     0.500000000000     0          
C405     C      0.500000000000     0.000000000000     0.232200000000     0          
C406     C      0.500000000000     0.000000000000     0.311800000000     0          
C407     C      0.500000000000     0.000000000000     0.460100000000     0          
C408     C      0.000000000000     0.500000000000     0.732200000000     0          
C409     C      0.000000000000     0.500000000000     0.811800000000     0          
C410     C      0.000000000000     0.500000000000     0.960100000000     0          
C411     C      0.500000000000     0.000000000000     0.767800000000     0          
C412     C      0.500000000000     0.000000000000     0.688200000000     0          
C413     C      0.500000000000     0.000000000000     0.539900000000     0          
C414     C      0.000000000000     0.500000000000     0.267800000000     0          
C415     C      0.000000000000     0.500000000000     0.188200000000     0          
C416     C      0.000000000000     0.500000000000     0.039900000000     0          
C417     C      0.500000000000     0.190600000000     0.000000000000     0          
C418     C      0.500000000000     0.255300000000     0.000000000000     0          
C419     C      0.500000000000     0.376200000000     0.000000000000     0          
C420     C      0.500000000000     0.809400000000     0.000000000000     0          
C421     C      0.500000000000     0.744700000000     0.000000000000     0          
C422     C      0.500000000000     0.623800000000     0.000000000000     0          
C423     C      0.809400000000     0.500000000000     0.500000000000     0          
C424     C      0.744700000000     0.500000000000     0.500000000000     0          
C425     C      0.623800000000     0.500000000000     0.500000000000     0          
C426     C      0.190600000000     0.500000000000     0.500000000000     0          
C427     C      0.255300000000     0.500000000000     0.500000000000     0          
C428     C      0.376200000000     0.500000000000     0.500000000000     0          
N429     N      0.281700000000     0.500000000000     0.000000000000     0          
N430     N      0.500000000000     0.718300000000     0.500000000000     0          


