data_DEFTAM

_audit_creation_method RASPA-1.0
_audit_creation_date 2020-11-2
_audit_author_name 'Rocio Bueno-Perez'

_cell_length_a    23.1092
_cell_length_b    23.1092
_cell_length_c    18.7957
_cell_angle_alpha 90
_cell_angle_beta  90
_cell_angle_gamma 90
_cell_volume      10037.6

_symmetry_cell_setting          triclinic
_symmetry_space_group_name_Hall 'P 1'
_symmetry_space_group_name_H-M  'P 1'
_symmetry_Int_Tables_number     1

_symmetry_equiv_pos_as_xyz 'x,y,z'

loop_
_atom_site_label
_atom_site_type_symbol
_atom_site_fract_x
_atom_site_fract_y
_atom_site_fract_z
_atom_site_charge
O1       O      0.391570000000     0.083520000000     0.134900000000     0          
O2       O      0.441110000000     0.156180000000     0.072800000000     0          
C3       C      0.300600000000     0.260100000000     0.231000000000     0          
C4       C      0.300100000000     0.202700000000     0.250800000000     0          
C5       C      0.334400000000     0.162700000000     0.214600000000     0          
H6       H      0.334100000000     0.123100000000     0.228300000000     0          
C7       C      0.369000000000     0.180900000000     0.158400000000     0          
C8       C      0.369800000000     0.238500000000     0.138600000000     0          
H9       H      0.393900000000     0.250900000000     0.100500000000     0          
C10      C      0.335200000000     0.278600000000     0.174800000000     0          
C11      C      0.403400000000     0.136200000000     0.118500000000     0          
H12      H      0.077700000000     0.122100000000     0.042800000000     0          
H13      H      0.276500000000     0.190400000000     0.289300000000     0          
C14      C      0.338300000000     0.340800000000     0.148700000000     0          
H15      H      0.365400000000     0.343300000000     0.108800000000     0          
H16      H      0.299800000000     0.353300000000     0.133100000000     0          
H17      H      0.351600000000     0.365800000000     0.187500000000     0          
O18      O      0.608430000000     0.916480000000     0.134900000000     0          
O19      O      0.558890000000     0.843820000000     0.072800000000     0          
C20      C      0.699400000000     0.739900000000     0.231000000000     0          
C21      C      0.699900000000     0.797300000000     0.250800000000     0          
C22      C      0.665600000000     0.837300000000     0.214600000000     0          
H23      H      0.665900000000     0.876900000000     0.228300000000     0          
C24      C      0.631000000000     0.819100000000     0.158400000000     0          
C25      C      0.630200000000     0.761500000000     0.138600000000     0          
H26      H      0.606100000000     0.749100000000     0.100500000000     0          
C27      C      0.664800000000     0.721400000000     0.174800000000     0          
C28      C      0.596600000000     0.863800000000     0.118500000000     0          
H29      H      0.922300000000     0.877900000000     0.042800000000     0          
H30      H      0.723500000000     0.809600000000     0.289300000000     0          
C31      C      0.661700000000     0.659200000000     0.148700000000     0          
H32      H      0.634600000000     0.656700000000     0.108800000000     0          
H33      H      0.700200000000     0.646700000000     0.133100000000     0          
H34      H      0.648400000000     0.634200000000     0.187500000000     0          
O35      O      0.916480000000     0.391570000000     0.634900000000     0          
O36      O      0.843820000000     0.441110000000     0.572800000000     0          
C37      C      0.739900000000     0.300600000000     0.731000000000     0          
C38      C      0.797300000000     0.300100000000     0.750800000000     0          
C39      C      0.837300000000     0.334400000000     0.714600000000     0          
H40      H      0.876900000000     0.334100000000     0.728300000000     0          
C41      C      0.819100000000     0.369000000000     0.658400000000     0          
C42      C      0.761500000000     0.369800000000     0.638600000000     0          
H43      H      0.749100000000     0.393900000000     0.600500000000     0          
C44      C      0.721400000000     0.335200000000     0.674800000000     0          
C45      C      0.863800000000     0.403400000000     0.618500000000     0          
H46      H      0.877900000000     0.077700000000     0.542800000000     0          
H47      H      0.809600000000     0.276500000000     0.789300000000     0          
C48      C      0.659200000000     0.338300000000     0.648700000000     0          
H49      H      0.656700000000     0.365400000000     0.608800000000     0          
H50      H      0.646700000000     0.299800000000     0.633100000000     0          
H51      H      0.634200000000     0.351600000000     0.687500000000     0          
O52      O      0.083520000000     0.608430000000     0.634900000000     0          
O53      O      0.156180000000     0.558890000000     0.572800000000     0          
C54      C      0.260100000000     0.699400000000     0.731000000000     0          
C55      C      0.202700000000     0.699900000000     0.750800000000     0          
C56      C      0.162700000000     0.665600000000     0.714600000000     0          
H57      H      0.123100000000     0.665900000000     0.728300000000     0          
C58      C      0.180900000000     0.631000000000     0.658400000000     0          
C59      C      0.238500000000     0.630200000000     0.638600000000     0          
H60      H      0.250900000000     0.606100000000     0.600500000000     0          
C61      C      0.278600000000     0.664800000000     0.674800000000     0          
C62      C      0.136200000000     0.596600000000     0.618500000000     0          
H63      H      0.122100000000     0.922300000000     0.542800000000     0          
H64      H      0.190400000000     0.723500000000     0.789300000000     0          
C65      C      0.340800000000     0.661700000000     0.648700000000     0          
H66      H      0.343300000000     0.634600000000     0.608800000000     0          
H67      H      0.353300000000     0.700200000000     0.633100000000     0          
H68      H      0.365800000000     0.648400000000     0.687500000000     0          
O69      O      0.608430000000     0.083520000000     0.865100000000     0          
O70      O      0.558890000000     0.156180000000     0.927200000000     0          
C71      C      0.699400000000     0.260100000000     0.769000000000     0          
C72      C      0.699900000000     0.202700000000     0.749200000000     0          
C73      C      0.665600000000     0.162700000000     0.785400000000     0          
H74      H      0.665900000000     0.123100000000     0.771700000000     0          
C75      C      0.631000000000     0.180900000000     0.841600000000     0          
C76      C      0.630200000000     0.238500000000     0.861400000000     0          
H77      H      0.606100000000     0.250900000000     0.899500000000     0          
C78      C      0.664800000000     0.278600000000     0.825200000000     0          
H79      H      0.664700000000     0.318200000000     0.838900000000     0          
C80      C      0.596600000000     0.136200000000     0.881500000000     0          
C81      C      0.735300000000     0.176800000000     0.689100000000     0          
H82      H      0.727700000000     0.135100000000     0.686200000000     0          
H83      H      0.724500000000     0.195200000000     0.644100000000     0          
H84      H      0.776500000000     0.183200000000     0.698300000000     0          
O85      O      0.391570000000     0.916480000000     0.865100000000     0          
O86      O      0.441110000000     0.843820000000     0.927200000000     0          
C87      C      0.300600000000     0.739900000000     0.769000000000     0          
C88      C      0.300100000000     0.797300000000     0.749200000000     0          
C89      C      0.334400000000     0.837300000000     0.785400000000     0          
H90      H      0.334100000000     0.876900000000     0.771700000000     0          
C91      C      0.369000000000     0.819100000000     0.841600000000     0          
C92      C      0.369800000000     0.761500000000     0.861400000000     0          
H93      H      0.393900000000     0.749100000000     0.899500000000     0          
C94      C      0.335200000000     0.721400000000     0.825200000000     0          
H95      H      0.335300000000     0.681800000000     0.838900000000     0          
C96      C      0.403400000000     0.863800000000     0.881500000000     0          
C97      C      0.264700000000     0.823200000000     0.689100000000     0          
H98      H      0.272300000000     0.864900000000     0.686200000000     0          
H99      H      0.275500000000     0.804800000000     0.644100000000     0          
H100     H      0.223500000000     0.816800000000     0.698300000000     0          
H101     H      0.419900000000     0.912600000000     0.510900000000     0          
O102     O      0.083520000000     0.391570000000     0.365100000000     0          
O103     O      0.156180000000     0.441110000000     0.427200000000     0          
C104     C      0.260100000000     0.300600000000     0.269000000000     0          
C105     C      0.202700000000     0.300100000000     0.249200000000     0          
C106     C      0.162700000000     0.334400000000     0.285400000000     0          
H107     H      0.123100000000     0.334100000000     0.271700000000     0          
C108     C      0.180900000000     0.369000000000     0.341600000000     0          
C109     C      0.238500000000     0.369800000000     0.361400000000     0          
H110     H      0.250900000000     0.393900000000     0.399500000000     0          
C111     C      0.278600000000     0.335200000000     0.325200000000     0          
H112     H      0.318200000000     0.335300000000     0.338900000000     0          
C113     C      0.136200000000     0.403400000000     0.381500000000     0          
C114     C      0.176800000000     0.264700000000     0.189100000000     0          
H115     H      0.135100000000     0.272300000000     0.186200000000     0          
H116     H      0.195200000000     0.275500000000     0.144100000000     0          
H117     H      0.183200000000     0.223500000000     0.198300000000     0          
O118     O      0.916480000000     0.608430000000     0.365100000000     0          
O119     O      0.843820000000     0.558890000000     0.427200000000     0          
C120     C      0.739900000000     0.699400000000     0.269000000000     0          
C121     C      0.797300000000     0.699900000000     0.249200000000     0          
C122     C      0.837300000000     0.665600000000     0.285400000000     0          
H123     H      0.876900000000     0.665900000000     0.271700000000     0          
C124     C      0.819100000000     0.631000000000     0.341600000000     0          
C125     C      0.761500000000     0.630200000000     0.361400000000     0          
H126     H      0.749100000000     0.606100000000     0.399500000000     0          
C127     C      0.721400000000     0.664800000000     0.325200000000     0          
H128     H      0.681800000000     0.664700000000     0.338900000000     0          
C129     C      0.863800000000     0.596600000000     0.381500000000     0          
C130     C      0.823200000000     0.735300000000     0.189100000000     0          
H131     H      0.864900000000     0.727700000000     0.186200000000     0          
H132     H      0.804800000000     0.724500000000     0.144100000000     0          
H133     H      0.816800000000     0.776500000000     0.198300000000     0          
O134     O      0.608430000000     0.916480000000     0.865100000000     0          
O135     O      0.558890000000     0.843820000000     0.927200000000     0          
C136     C      0.699400000000     0.739900000000     0.769000000000     0          
C137     C      0.699900000000     0.797300000000     0.749200000000     0          
C138     C      0.665600000000     0.837300000000     0.785400000000     0          
H139     H      0.665900000000     0.876900000000     0.771700000000     0          
C140     C      0.631000000000     0.819100000000     0.841600000000     0          
C141     C      0.630200000000     0.761500000000     0.861400000000     0          
H142     H      0.606100000000     0.749100000000     0.899500000000     0          
C143     C      0.664800000000     0.721400000000     0.825200000000     0          
H144     H      0.664700000000     0.681800000000     0.838900000000     0          
C145     C      0.596600000000     0.863800000000     0.881500000000     0          
C146     C      0.735300000000     0.823200000000     0.689100000000     0          
H147     H      0.727700000000     0.864900000000     0.686200000000     0          
H148     H      0.724500000000     0.804800000000     0.644100000000     0          
H149     H      0.776500000000     0.816800000000     0.698300000000     0          
C150     C      0.545000000000     0.973500000000     0.651500000000     0          
H151     H      0.575700000000     0.955500000000     0.676900000000     0          
C152     C      0.545000000000     0.973500000000     0.577200000000     0          
C153     C      0.594800000000     0.944200000000     0.540700000000     0          
H154     H      0.922300000000     0.877900000000     0.957200000000     0          
H155     H      0.615300000000     0.972300000000     0.510900000000     0          
H156     H      0.621300000000     0.928500000000     0.576500000000     0          
H157     H      0.580100000000     0.912600000000     0.510900000000     0          
O158     O      0.391570000000     0.083520000000     0.865100000000     0          
O159     O      0.441110000000     0.156180000000     0.927200000000     0          
C160     C      0.300600000000     0.260100000000     0.769000000000     0          
C161     C      0.300100000000     0.202700000000     0.749200000000     0          
C162     C      0.334400000000     0.162700000000     0.785400000000     0          
H163     H      0.334100000000     0.123100000000     0.771700000000     0          
C164     C      0.369000000000     0.180900000000     0.841600000000     0          
C165     C      0.369800000000     0.238500000000     0.861400000000     0          
H166     H      0.393900000000     0.250900000000     0.899500000000     0          
C167     C      0.335200000000     0.278600000000     0.825200000000     0          
H168     H      0.335300000000     0.318200000000     0.838900000000     0          
C169     C      0.403400000000     0.136200000000     0.881500000000     0          
C170     C      0.264700000000     0.176800000000     0.689100000000     0          
H171     H      0.272300000000     0.135100000000     0.686200000000     0          
H172     H      0.275500000000     0.195200000000     0.644100000000     0          
H173     H      0.223500000000     0.183200000000     0.698300000000     0          
C174     C      0.455000000000     0.026500000000     0.651500000000     0          
H175     H      0.424300000000     0.044500000000     0.676900000000     0          
C176     C      0.455000000000     0.026500000000     0.577200000000     0          
H177     H      0.077700000000     0.122100000000     0.957200000000     0          
H178     H      0.424300000000     0.044600000000     0.551900000000     0          
O179     O      0.083520000000     0.608430000000     0.365100000000     0          
O180     O      0.156180000000     0.558890000000     0.427200000000     0          
C181     C      0.260100000000     0.699400000000     0.269000000000     0          
C182     C      0.202700000000     0.699900000000     0.249200000000     0          
C183     C      0.162700000000     0.665600000000     0.285400000000     0          
H184     H      0.123100000000     0.665900000000     0.271700000000     0          
C185     C      0.180900000000     0.631000000000     0.341600000000     0          
C186     C      0.238500000000     0.630200000000     0.361400000000     0          
H187     H      0.250900000000     0.606100000000     0.399500000000     0          
C188     C      0.278600000000     0.664800000000     0.325200000000     0          
H189     H      0.318200000000     0.664700000000     0.338900000000     0          
C190     C      0.136200000000     0.596600000000     0.381500000000     0          
C191     C      0.176800000000     0.735300000000     0.189100000000     0          
H192     H      0.135100000000     0.727700000000     0.186200000000     0          
H193     H      0.195200000000     0.724500000000     0.144100000000     0          
H194     H      0.183200000000     0.776500000000     0.198300000000     0          
C195     C      0.026500000000     0.545000000000     0.151500000000     0          
H196     H      0.044500000000     0.575700000000     0.176900000000     0          
C197     C      0.026500000000     0.545000000000     0.077200000000     0          
C198     C      0.055800000000     0.594800000000     0.040700000000     0          
H199     H      0.122100000000     0.922300000000     0.457200000000     0          
H200     H      0.027700000000     0.615300000000     0.010900000000     0          
H201     H      0.071500000000     0.621300000000     0.076500000000     0          
H202     H      0.087400000000     0.580100000000     0.010900000000     0          
O203     O      0.916480000000     0.391570000000     0.365100000000     0          
O204     O      0.843820000000     0.441110000000     0.427200000000     0          
C205     C      0.739900000000     0.300600000000     0.269000000000     0          
C206     C      0.797300000000     0.300100000000     0.249200000000     0          
C207     C      0.837300000000     0.334400000000     0.285400000000     0          
H208     H      0.876900000000     0.334100000000     0.271700000000     0          
C209     C      0.819100000000     0.369000000000     0.341600000000     0          
C210     C      0.761500000000     0.369800000000     0.361400000000     0          
H211     H      0.749100000000     0.393900000000     0.399500000000     0          
C212     C      0.721400000000     0.335200000000     0.325200000000     0          
H213     H      0.681800000000     0.335300000000     0.338900000000     0          
C214     C      0.863800000000     0.403400000000     0.381500000000     0          
C215     C      0.823200000000     0.264700000000     0.189100000000     0          
H216     H      0.864900000000     0.272300000000     0.186200000000     0          
H217     H      0.804800000000     0.275500000000     0.144100000000     0          
H218     H      0.816800000000     0.223500000000     0.198300000000     0          
C219     C      0.973500000000     0.455000000000     0.151500000000     0          
H220     H      0.955500000000     0.424300000000     0.176900000000     0          
C221     C      0.973500000000     0.455000000000     0.077200000000     0          
H222     H      0.877900000000     0.077700000000     0.457200000000     0          
H223     H      0.955400000000     0.424300000000     0.051900000000     0          
O224     O      0.391570000000     0.916480000000     0.134900000000     0          
O225     O      0.441110000000     0.843820000000     0.072800000000     0          
C226     C      0.300600000000     0.739900000000     0.231000000000     0          
C227     C      0.300100000000     0.797300000000     0.250800000000     0          
C228     C      0.334400000000     0.837300000000     0.214600000000     0          
H229     H      0.334100000000     0.876900000000     0.228300000000     0          
C230     C      0.369000000000     0.819100000000     0.158400000000     0          
C231     C      0.369800000000     0.761500000000     0.138600000000     0          
H232     H      0.393900000000     0.749100000000     0.100500000000     0          
C233     C      0.335200000000     0.721400000000     0.174800000000     0          
C234     C      0.403400000000     0.863800000000     0.118500000000     0          
C235     C      0.455000000000     0.973500000000     0.348500000000     0          
H236     H      0.424300000000     0.955500000000     0.323100000000     0          
C237     C      0.455000000000     0.973500000000     0.422800000000     0          
C238     C      0.405200000000     0.944200000000     0.459300000000     0          
H239     H      0.276500000000     0.809600000000     0.289300000000     0          
C240     C      0.338300000000     0.659200000000     0.148700000000     0          
H241     H      0.365400000000     0.656700000000     0.108800000000     0          
H242     H      0.299800000000     0.646700000000     0.133100000000     0          
H243     H      0.351600000000     0.634200000000     0.187500000000     0          
H244     H      0.384700000000     0.972300000000     0.489100000000     0          
H245     H      0.378700000000     0.928500000000     0.423500000000     0          
O246     O      0.608430000000     0.083520000000     0.134900000000     0          
O247     O      0.558890000000     0.156180000000     0.072800000000     0          
C248     C      0.699400000000     0.260100000000     0.231000000000     0          
C249     C      0.699900000000     0.202700000000     0.250800000000     0          
C250     C      0.665600000000     0.162700000000     0.214600000000     0          
H251     H      0.665900000000     0.123100000000     0.228300000000     0          
C252     C      0.631000000000     0.180900000000     0.158400000000     0          
C253     C      0.630200000000     0.238500000000     0.138600000000     0          
H254     H      0.606100000000     0.250900000000     0.100500000000     0          
C255     C      0.664800000000     0.278600000000     0.174800000000     0          
C256     C      0.596600000000     0.136200000000     0.118500000000     0          
C257     C      0.545000000000     0.026500000000     0.348500000000     0          
H258     H      0.575700000000     0.044500000000     0.323100000000     0          
C259     C      0.545000000000     0.026500000000     0.422800000000     0          
H260     H      0.723500000000     0.190400000000     0.289300000000     0          
H261     H      0.575700000000     0.044600000000     0.448100000000     0          
C262     C      0.661700000000     0.340800000000     0.148700000000     0          
H263     H      0.634600000000     0.343300000000     0.108800000000     0          
H264     H      0.700200000000     0.353300000000     0.133100000000     0          
H265     H      0.648400000000     0.365800000000     0.187500000000     0          
O266     O      0.916480000000     0.608430000000     0.634900000000     0          
O267     O      0.843820000000     0.558890000000     0.572800000000     0          
C268     C      0.739900000000     0.699400000000     0.731000000000     0          
C269     C      0.797300000000     0.699900000000     0.750800000000     0          
C270     C      0.837300000000     0.665600000000     0.714600000000     0          
H271     H      0.876900000000     0.665900000000     0.728300000000     0          
C272     C      0.819100000000     0.631000000000     0.658400000000     0          
C273     C      0.761500000000     0.630200000000     0.638600000000     0          
H274     H      0.749100000000     0.606100000000     0.600500000000     0          
C275     C      0.721400000000     0.664800000000     0.674800000000     0          
C276     C      0.863800000000     0.596600000000     0.618500000000     0          
C277     C      0.973500000000     0.545000000000     0.848500000000     0          
H278     H      0.955500000000     0.575700000000     0.823100000000     0          
C279     C      0.973500000000     0.545000000000     0.922800000000     0          
H280     H      0.809600000000     0.723500000000     0.789300000000     0          
H281     H      0.955400000000     0.575700000000     0.948100000000     0          
C282     C      0.659200000000     0.661700000000     0.648700000000     0          
H283     H      0.656700000000     0.634600000000     0.608800000000     0          
H284     H      0.646700000000     0.700200000000     0.633100000000     0          
H285     H      0.634200000000     0.648400000000     0.687500000000     0          
O286     O      0.083520000000     0.391570000000     0.634900000000     0          
O287     O      0.156180000000     0.441110000000     0.572800000000     0          
C288     C      0.260100000000     0.300600000000     0.731000000000     0          
C289     C      0.202700000000     0.300100000000     0.750800000000     0          
C290     C      0.162700000000     0.334400000000     0.714600000000     0          
H291     H      0.123100000000     0.334100000000     0.728300000000     0          
C292     C      0.180900000000     0.369000000000     0.658400000000     0          
C293     C      0.238500000000     0.369800000000     0.638600000000     0          
H294     H      0.250900000000     0.393900000000     0.600500000000     0          
C295     C      0.278600000000     0.335200000000     0.674800000000     0          
C296     C      0.136200000000     0.403400000000     0.618500000000     0          
C297     C      0.026500000000     0.455000000000     0.848500000000     0          
H298     H      0.044500000000     0.424300000000     0.823100000000     0          
C299     C      0.026500000000     0.455000000000     0.922800000000     0          
C300     C      0.055800000000     0.405200000000     0.959300000000     0          
H301     H      0.190400000000     0.276500000000     0.789300000000     0          
C302     C      0.340800000000     0.338300000000     0.648700000000     0          
H303     H      0.343300000000     0.365400000000     0.608800000000     0          
H304     H      0.353300000000     0.299800000000     0.633100000000     0          
H305     H      0.365800000000     0.351600000000     0.687500000000     0          
H306     H      0.027700000000     0.384700000000     0.989100000000     0          
H307     H      0.071500000000     0.378700000000     0.923500000000     0          
H308     H      0.087400000000     0.419900000000     0.989100000000     0          
Zr309    Zr     0.424560000000     0.000000000000     0.092550000000     0          
O310     O      0.445600000000     0.000000000000     0.205700000000     0          
O311     O      0.332000000000     0.000000000000     0.062100000000     0          
C312     C      0.215100000000     0.000000000000     0.064100000000     0          
H313     H      0.235800000000     0.000000000000     0.107700000000     0          
C314     C      0.154700000000     0.000000000000     0.064100000000     0          
H315     H      0.134200000000     0.000000000000     0.107900000000     0          
Zr316    Zr     0.575440000000     0.000000000000     0.092550000000     0          
O317     O      0.554400000000     0.000000000000     0.205700000000     0          
O318     O      0.668000000000     0.000000000000     0.062100000000     0          
C319     C      0.784900000000     0.000000000000     0.064100000000     0          
H320     H      0.764200000000     0.000000000000     0.107700000000     0          
C321     C      0.845300000000     0.000000000000     0.064100000000     0          
H322     H      0.865800000000     0.000000000000     0.107900000000     0          
Zr323    Zr     0.000000000000     0.424560000000     0.592550000000     0          
O324     O      0.000000000000     0.445600000000     0.705700000000     0          
O325     O      0.000000000000     0.332000000000     0.562100000000     0          
C326     C      0.000000000000     0.215100000000     0.564100000000     0          
H327     H      0.000000000000     0.235800000000     0.607700000000     0          
C328     C      0.000000000000     0.154700000000     0.564100000000     0          
H329     H      0.000000000000     0.134200000000     0.607900000000     0          
Zr330    Zr     0.000000000000     0.575440000000     0.592550000000     0          
O331     O      0.000000000000     0.554400000000     0.705700000000     0          
O332     O      0.000000000000     0.668000000000     0.562100000000     0          
C333     C      0.000000000000     0.784900000000     0.564100000000     0          
H334     H      0.000000000000     0.764200000000     0.607700000000     0          
C335     C      0.000000000000     0.845300000000     0.564100000000     0          
H336     H      0.000000000000     0.865800000000     0.607900000000     0          
Zr337    Zr     0.575440000000     0.000000000000     0.907450000000     0          
O338     O      0.554400000000     0.000000000000     0.794300000000     0          
O339     O      0.668000000000     0.000000000000     0.937900000000     0          
C340     C      0.784900000000     0.000000000000     0.935900000000     0          
H341     H      0.764200000000     0.000000000000     0.892300000000     0          
C342     C      0.845300000000     0.000000000000     0.935900000000     0          
H343     H      0.865800000000     0.000000000000     0.892100000000     0          
Zr344    Zr     0.424560000000     0.000000000000     0.907450000000     0          
O345     O      0.445600000000     0.000000000000     0.794300000000     0          
O346     O      0.332000000000     0.000000000000     0.937900000000     0          
C347     C      0.215100000000     0.000000000000     0.935900000000     0          
H348     H      0.235800000000     0.000000000000     0.892300000000     0          
C349     C      0.154700000000     0.000000000000     0.935900000000     0          
H350     H      0.134200000000     0.000000000000     0.892100000000     0          
Zr351    Zr     0.000000000000     0.424560000000     0.407450000000     0          
O352     O      0.000000000000     0.445600000000     0.294300000000     0          
O353     O      0.000000000000     0.332000000000     0.437900000000     0          
C354     C      0.000000000000     0.215100000000     0.435900000000     0          
H355     H      0.000000000000     0.235800000000     0.392300000000     0          
C356     C      0.000000000000     0.154700000000     0.435900000000     0          
H357     H      0.000000000000     0.134200000000     0.392100000000     0          
Zr358    Zr     0.000000000000     0.575440000000     0.407450000000     0          
O359     O      0.000000000000     0.554400000000     0.294300000000     0          
O360     O      0.000000000000     0.668000000000     0.437900000000     0          
C361     C      0.000000000000     0.784900000000     0.435900000000     0          
H362     H      0.000000000000     0.764200000000     0.392300000000     0          
C363     C      0.000000000000     0.845300000000     0.435900000000     0          
H364     H      0.000000000000     0.865800000000     0.392100000000     0          
Zr365    Zr     0.500000000000     0.107890000000     0.000000000000     0          
Zr366    Zr     0.500000000000     0.892110000000     0.000000000000     0          
Zr367    Zr     0.892110000000     0.500000000000     0.500000000000     0          
Zr368    Zr     0.107890000000     0.500000000000     0.500000000000     0          
O369     O      0.500000000000     0.053600000000     0.093000000000     0          
O370     O      0.500000000000     0.946400000000     0.093000000000     0          
O371     O      0.946400000000     0.500000000000     0.593000000000     0          
O372     O      0.053600000000     0.500000000000     0.593000000000     0          
O373     O      0.500000000000     0.053600000000     0.907000000000     0          
O374     O      0.500000000000     0.946400000000     0.907000000000     0          
O375     O      0.053600000000     0.500000000000     0.407000000000     0          
O376     O      0.946400000000     0.500000000000     0.407000000000     0          
O377     O      0.425100000000     0.053600000000     0.000000000000     0          
C378     C      0.030880000000     0.051770000000     0.000000000000     0          
C379     C      0.054000000000     0.114600000000     0.000000000000     0          
O380     O      0.574900000000     0.946400000000     0.000000000000     0          
C381     C      0.969120000000     0.948230000000     0.000000000000     0          
C382     C      0.946000000000     0.885400000000     0.000000000000     0          
O383     O      0.946400000000     0.425100000000     0.500000000000     0          
C384     C      0.948230000000     0.030880000000     0.500000000000     0          
C385     C      0.885400000000     0.054000000000     0.500000000000     0          
O386     O      0.053600000000     0.574900000000     0.500000000000     0          
C387     C      0.051770000000     0.969120000000     0.500000000000     0          
C388     C      0.114600000000     0.946000000000     0.500000000000     0          
O389     O      0.574900000000     0.053600000000     0.000000000000     0          
N390     N      0.982200000000     0.203000000000     0.000000000000     0          
C391     C      0.969120000000     0.051770000000     0.000000000000     0          
H392     H      0.948400000000     0.087300000000     0.000000000000     0          
O393     O      0.425100000000     0.946400000000     0.000000000000     0          
N394     N      0.017800000000     0.797000000000     0.000000000000     0          
C395     C      0.030880000000     0.948230000000     0.000000000000     0          
H396     H      0.051600000000     0.912700000000     0.000000000000     0          
O397     O      0.053600000000     0.425100000000     0.500000000000     0          
N398     N      0.203000000000     0.017800000000     0.500000000000     0          
C399     C      0.051770000000     0.030880000000     0.500000000000     0          
H400     H      0.087300000000     0.051600000000     0.500000000000     0          
O401     O      0.946400000000     0.574900000000     0.500000000000     0          
N402     N      0.797000000000     0.982200000000     0.500000000000     0          
C403     C      0.948230000000     0.969120000000     0.500000000000     0          
H404     H      0.912700000000     0.948400000000     0.500000000000     0          
N405     N      0.000000000000     0.152600000000     0.000000000000     0          
N406     N      0.000000000000     0.250500000000     0.000000000000     0          
N407     N      0.000000000000     0.847400000000     0.000000000000     0          
N408     N      0.000000000000     0.749500000000     0.000000000000     0          
N409     N      0.847400000000     0.000000000000     0.500000000000     0          
N410     N      0.749500000000     0.000000000000     0.500000000000     0          
N411     N      0.152600000000     0.000000000000     0.500000000000     0          
N412     N      0.250500000000     0.000000000000     0.500000000000     0          
C413     C      0.500000000000     0.000000000000     0.232600000000     0          
C414     C      0.500000000000     0.000000000000     0.311800000000     0          
C415     C      0.500000000000     0.000000000000     0.460000000000     0          
C416     C      0.000000000000     0.500000000000     0.732600000000     0          
C417     C      0.000000000000     0.500000000000     0.811800000000     0          
C418     C      0.000000000000     0.500000000000     0.960000000000     0          
C419     C      0.500000000000     0.000000000000     0.767400000000     0          
C420     C      0.500000000000     0.000000000000     0.688200000000     0          
C421     C      0.500000000000     0.000000000000     0.540000000000     0          
C422     C      0.000000000000     0.500000000000     0.267400000000     0          
C423     C      0.000000000000     0.500000000000     0.188200000000     0          
C424     C      0.000000000000     0.500000000000     0.040000000000     0          
C425     C      0.309000000000     0.000000000000     0.000000000000     0          
C426     C      0.244700000000     0.000000000000     0.000000000000     0          
C427     C      0.124600000000     0.000000000000     0.000000000000     0          
C428     C      0.060130000000     0.000000000000     0.000000000000     0          
C429     C      0.691000000000     0.000000000000     0.000000000000     0          
C430     C      0.755300000000     0.000000000000     0.000000000000     0          
C431     C      0.875400000000     0.000000000000     0.000000000000     0          
C432     C      0.939870000000     0.000000000000     0.000000000000     0          
C433     C      0.000000000000     0.309000000000     0.500000000000     0          
C434     C      0.000000000000     0.244700000000     0.500000000000     0          
C435     C      0.000000000000     0.124600000000     0.500000000000     0          
C436     C      0.000000000000     0.060130000000     0.500000000000     0          
C437     C      0.000000000000     0.691000000000     0.500000000000     0          
C438     C      0.000000000000     0.755300000000     0.500000000000     0          
C439     C      0.000000000000     0.875400000000     0.500000000000     0          
C440     C      0.000000000000     0.939870000000     0.500000000000     0          


