data_DIDBIE

_audit_creation_method RASPA-1.0
_audit_creation_date 2020-11-2
_audit_author_name 'Rocio Bueno-Perez'

_cell_length_a    17.924
_cell_length_b    17.924
_cell_length_c    17.924
_cell_angle_alpha 90
_cell_angle_beta  90
_cell_angle_gamma 90
_cell_volume      5758.44

_symmetry_cell_setting          cubic
_symmetry_space_group_name_Hall 'P 1'
_symmetry_space_group_name_H-M  'P 1'
_symmetry_Int_Tables_number     1

_symmetry_equiv_pos_as_xyz 'x,y,z'

loop_
_atom_site_label
_atom_site_type_symbol
_atom_site_fract_x
_atom_site_fract_y
_atom_site_fract_z
_atom_site_charge
Zr1      Zr     0.363310000000     0.500000000000     0.000000000000     0          
O1       O      0.428500000000     0.428500000000     0.071500000000     0          
O2       O      0.305490000000     0.395190000000     0.000000000000     0          
C1       C      0.331380000000     0.331380000000     0.000000000000     0          
C2       C      0.273470000000     0.273470000000     0.000000000000     0          
Zr1      Zr     0.500000000000     0.363310000000     0.000000000000     0          
O1       O      0.571500000000     0.428500000000     0.071500000000     0          
O2       O      0.604810000000     0.305490000000     0.000000000000     0          
C1       C      0.668620000000     0.331380000000     0.000000000000     0          
C2       C      0.726530000000     0.273470000000     0.000000000000     0          
Zr1      Zr     0.636690000000     0.500000000000     0.000000000000     0          
O1       O      0.571500000000     0.571500000000     0.071500000000     0          
O2       O      0.694510000000     0.604810000000     0.000000000000     0          
C1       C      0.668620000000     0.668620000000     0.000000000000     0          
C2       C      0.726530000000     0.726530000000     0.000000000000     0          
Zr1      Zr     0.500000000000     0.636690000000     0.000000000000     0          
O1       O      0.428500000000     0.571500000000     0.071500000000     0          
O2       O      0.395190000000     0.694510000000     0.000000000000     0          
C1       C      0.331380000000     0.668620000000     0.000000000000     0          
C2       C      0.273470000000     0.726530000000     0.000000000000     0          
O1       O      0.428500000000     0.571500000000     0.928500000000     0          
O2       O      0.305490000000     0.604810000000     0.000000000000     0          
O1       O      0.428500000000     0.428500000000     0.928500000000     0          
O2       O      0.395190000000     0.305490000000     0.000000000000     0          
O1       O      0.571500000000     0.428500000000     0.928500000000     0          
O2       O      0.694510000000     0.395190000000     0.000000000000     0          
O1       O      0.571500000000     0.571500000000     0.928500000000     0          
O2       O      0.604810000000     0.694510000000     0.000000000000     0          
Zr1      Zr     0.000000000000     0.363310000000     0.500000000000     0          
O1       O      0.071500000000     0.428500000000     0.428500000000     0          
O2       O      0.000000000000     0.305490000000     0.395190000000     0          
C1       C      0.000000000000     0.331380000000     0.331380000000     0          
C2       C      0.000000000000     0.273470000000     0.273470000000     0          
Zr1      Zr     0.636690000000     0.000000000000     0.500000000000     0          
O1       O      0.571500000000     0.071500000000     0.428500000000     0          
O2       O      0.694510000000     0.000000000000     0.395190000000     0          
C1       C      0.668620000000     0.000000000000     0.331380000000     0          
C2       C      0.726530000000     0.000000000000     0.273470000000     0          
Zr1      Zr     0.000000000000     0.636690000000     0.500000000000     0          
O1       O      0.928500000000     0.571500000000     0.428500000000     0          
O2       O      0.000000000000     0.694510000000     0.395190000000     0          
C1       C      0.000000000000     0.668620000000     0.331380000000     0          
C2       C      0.000000000000     0.726530000000     0.273470000000     0          
Zr1      Zr     0.363310000000     0.000000000000     0.500000000000     0          
O1       O      0.428500000000     0.928500000000     0.428500000000     0          
O2       O      0.305490000000     0.000000000000     0.395190000000     0          
C1       C      0.331380000000     0.000000000000     0.331380000000     0          
C2       C      0.273470000000     0.000000000000     0.273470000000     0          
O1       O      0.071500000000     0.571500000000     0.571500000000     0          
O2       O      0.000000000000     0.694510000000     0.604810000000     0          
C1       C      0.000000000000     0.668620000000     0.668620000000     0          
C2       C      0.000000000000     0.726530000000     0.726530000000     0          
O1       O      0.428500000000     0.071500000000     0.571500000000     0          
O2       O      0.305490000000     0.000000000000     0.604810000000     0          
C1       C      0.331380000000     0.000000000000     0.668620000000     0          
C2       C      0.273470000000     0.000000000000     0.726530000000     0          
O1       O      0.928500000000     0.428500000000     0.571500000000     0          
O2       O      0.000000000000     0.305490000000     0.604810000000     0          
C1       C      0.000000000000     0.331380000000     0.668620000000     0          
C2       C      0.000000000000     0.273470000000     0.726530000000     0          
O1       O      0.571500000000     0.928500000000     0.571500000000     0          
O2       O      0.694510000000     0.000000000000     0.604810000000     0          
C1       C      0.668620000000     0.000000000000     0.668620000000     0          
C2       C      0.726530000000     0.000000000000     0.726530000000     0          
Zr1      Zr     0.500000000000     0.000000000000     0.363310000000     0          
O1       O      0.428500000000     0.071500000000     0.428500000000     0          
O2       O      0.395190000000     0.000000000000     0.305490000000     0          
Zr1      Zr     0.500000000000     0.000000000000     0.636690000000     0          
O1       O      0.428500000000     0.928500000000     0.571500000000     0          
O2       O      0.395190000000     0.000000000000     0.694510000000     0          
Zr1      Zr     0.000000000000     0.500000000000     0.636690000000     0          
O1       O      0.071500000000     0.428500000000     0.571500000000     0          
O2       O      0.000000000000     0.395190000000     0.694510000000     0          
O1       O      0.571500000000     0.071500000000     0.571500000000     0          
O2       O      0.604810000000     0.000000000000     0.694510000000     0          
O1       O      0.928500000000     0.571500000000     0.571500000000     0          
O2       O      0.000000000000     0.604810000000     0.694510000000     0          
O1       O      0.571500000000     0.928500000000     0.428500000000     0          
O2       O      0.604810000000     0.000000000000     0.305490000000     0          
Zr1      Zr     0.000000000000     0.500000000000     0.363310000000     0          
O1       O      0.071500000000     0.571500000000     0.428500000000     0          
O2       O      0.000000000000     0.604810000000     0.305490000000     0          
O1       O      0.928500000000     0.428500000000     0.428500000000     0          
O2       O      0.000000000000     0.395190000000     0.305490000000     0          
O2       O      0.305490000000     0.895190000000     0.500000000000     0          
C1       C      0.331380000000     0.831380000000     0.500000000000     0          
C2       C      0.273470000000     0.773470000000     0.500000000000     0          
Zr1      Zr     0.500000000000     0.863310000000     0.500000000000     0          
O2       O      0.604810000000     0.805490000000     0.500000000000     0          
C1       C      0.668620000000     0.831380000000     0.500000000000     0          
C2       C      0.726530000000     0.773470000000     0.500000000000     0          
O2       O      0.694510000000     0.104810000000     0.500000000000     0          
C1       C      0.668620000000     0.168620000000     0.500000000000     0          
C2       C      0.726530000000     0.226530000000     0.500000000000     0          
Zr1      Zr     0.500000000000     0.136690000000     0.500000000000     0          
O2       O      0.395190000000     0.194510000000     0.500000000000     0          
C1       C      0.331380000000     0.168620000000     0.500000000000     0          
C2       C      0.273470000000     0.226530000000     0.500000000000     0          
O2       O      0.305490000000     0.104810000000     0.500000000000     0          
O2       O      0.395190000000     0.805490000000     0.500000000000     0          
O2       O      0.694510000000     0.895190000000     0.500000000000     0          
O2       O      0.604810000000     0.194510000000     0.500000000000     0          
Zr1      Zr     0.000000000000     0.863310000000     0.000000000000     0          
O1       O      0.071500000000     0.928500000000     0.928500000000     0          
O2       O      0.000000000000     0.805490000000     0.895190000000     0          
C1       C      0.000000000000     0.831380000000     0.831380000000     0          
C2       C      0.000000000000     0.773470000000     0.773470000000     0          
O2       O      0.694510000000     0.500000000000     0.895190000000     0          
C1       C      0.668620000000     0.500000000000     0.831380000000     0          
C2       C      0.726530000000     0.500000000000     0.773470000000     0          
Zr1      Zr     0.000000000000     0.136690000000     0.000000000000     0          
O1       O      0.928500000000     0.071500000000     0.928500000000     0          
O2       O      0.000000000000     0.194510000000     0.895190000000     0          
C1       C      0.000000000000     0.168620000000     0.831380000000     0          
C2       C      0.000000000000     0.226530000000     0.773470000000     0          
O2       O      0.305490000000     0.500000000000     0.895190000000     0          
C1       C      0.331380000000     0.500000000000     0.831380000000     0          
C2       C      0.273470000000     0.500000000000     0.773470000000     0          
O1       O      0.071500000000     0.071500000000     0.071500000000     0          
O2       O      0.000000000000     0.194510000000     0.104810000000     0          
C1       C      0.000000000000     0.168620000000     0.168620000000     0          
C2       C      0.000000000000     0.226530000000     0.226530000000     0          
O2       O      0.305490000000     0.500000000000     0.104810000000     0          
C1       C      0.331380000000     0.500000000000     0.168620000000     0          
C2       C      0.273470000000     0.500000000000     0.226530000000     0          
O1       O      0.928500000000     0.928500000000     0.071500000000     0          
O2       O      0.000000000000     0.805490000000     0.104810000000     0          
C1       C      0.000000000000     0.831380000000     0.168620000000     0          
C2       C      0.000000000000     0.773470000000     0.226530000000     0          
O2       O      0.694510000000     0.500000000000     0.104810000000     0          
C1       C      0.668620000000     0.500000000000     0.168620000000     0          
C2       C      0.726530000000     0.500000000000     0.226530000000     0          
Zr1      Zr     0.500000000000     0.500000000000     0.863310000000     0          
O2       O      0.395190000000     0.500000000000     0.805490000000     0          
Zr1      Zr     0.500000000000     0.500000000000     0.136690000000     0          
O2       O      0.395190000000     0.500000000000     0.194510000000     0          
Zr1      Zr     0.000000000000     0.000000000000     0.136690000000     0          
O1       O      0.071500000000     0.928500000000     0.071500000000     0          
O2       O      0.000000000000     0.895190000000     0.194510000000     0          
O2       O      0.604810000000     0.500000000000     0.194510000000     0          
O1       O      0.928500000000     0.071500000000     0.071500000000     0          
O2       O      0.000000000000     0.104810000000     0.194510000000     0          
O2       O      0.604810000000     0.500000000000     0.805490000000     0          
Zr1      Zr     0.000000000000     0.000000000000     0.863310000000     0          
O1       O      0.071500000000     0.071500000000     0.928500000000     0          
O2       O      0.000000000000     0.104810000000     0.805490000000     0          
O1       O      0.928500000000     0.928500000000     0.928500000000     0          
O2       O      0.000000000000     0.895190000000     0.805490000000     0          
Zr1      Zr     0.863310000000     0.500000000000     0.500000000000     0          
O2       O      0.805490000000     0.395190000000     0.500000000000     0          
C1       C      0.831380000000     0.331380000000     0.500000000000     0          
C2       C      0.773470000000     0.273470000000     0.500000000000     0          
O2       O      0.104810000000     0.305490000000     0.500000000000     0          
C1       C      0.168620000000     0.331380000000     0.500000000000     0          
C2       C      0.226530000000     0.273470000000     0.500000000000     0          
Zr1      Zr     0.136690000000     0.500000000000     0.500000000000     0          
O2       O      0.194510000000     0.604810000000     0.500000000000     0          
C1       C      0.168620000000     0.668620000000     0.500000000000     0          
C2       C      0.226530000000     0.726530000000     0.500000000000     0          
O2       O      0.895190000000     0.694510000000     0.500000000000     0          
C1       C      0.831380000000     0.668620000000     0.500000000000     0          
C2       C      0.773470000000     0.726530000000     0.500000000000     0          
O2       O      0.805490000000     0.604810000000     0.500000000000     0          
O2       O      0.895190000000     0.305490000000     0.500000000000     0          
O2       O      0.194510000000     0.395190000000     0.500000000000     0          
O2       O      0.104810000000     0.694510000000     0.500000000000     0          
O2       O      0.500000000000     0.305490000000     0.895190000000     0          
C1       C      0.500000000000     0.331380000000     0.831380000000     0          
C2       C      0.500000000000     0.273470000000     0.773470000000     0          
Zr1      Zr     0.136690000000     0.000000000000     0.000000000000     0          
O2       O      0.194510000000     0.000000000000     0.895190000000     0          
C1       C      0.168620000000     0.000000000000     0.831380000000     0          
C2       C      0.226530000000     0.000000000000     0.773470000000     0          
O2       O      0.500000000000     0.694510000000     0.895190000000     0          
C1       C      0.500000000000     0.668620000000     0.831380000000     0          
C2       C      0.500000000000     0.726530000000     0.773470000000     0          
Zr1      Zr     0.863310000000     0.000000000000     0.000000000000     0          
O2       O      0.805490000000     0.000000000000     0.895190000000     0          
C1       C      0.831380000000     0.000000000000     0.831380000000     0          
C2       C      0.773470000000     0.000000000000     0.773470000000     0          
O2       O      0.500000000000     0.694510000000     0.104810000000     0          
C1       C      0.500000000000     0.668620000000     0.168620000000     0          
C2       C      0.500000000000     0.726530000000     0.226530000000     0          
O2       O      0.805490000000     0.000000000000     0.104810000000     0          
C1       C      0.831380000000     0.000000000000     0.168620000000     0          
C2       C      0.773470000000     0.000000000000     0.226530000000     0          
O2       O      0.500000000000     0.305490000000     0.104810000000     0          
C1       C      0.500000000000     0.331380000000     0.168620000000     0          
C2       C      0.500000000000     0.273470000000     0.226530000000     0          
O2       O      0.194510000000     0.000000000000     0.104810000000     0          
C1       C      0.168620000000     0.000000000000     0.168620000000     0          
C2       C      0.226530000000     0.000000000000     0.226530000000     0          
O2       O      0.895190000000     0.000000000000     0.805490000000     0          
O2       O      0.895190000000     0.000000000000     0.194510000000     0          
O2       O      0.500000000000     0.395190000000     0.194510000000     0          
O2       O      0.104810000000     0.000000000000     0.194510000000     0          
O2       O      0.500000000000     0.604810000000     0.194510000000     0          
O2       O      0.104810000000     0.000000000000     0.805490000000     0          
O2       O      0.500000000000     0.604810000000     0.805490000000     0          
O2       O      0.500000000000     0.395190000000     0.805490000000     0          
O2       O      0.805490000000     0.895190000000     0.000000000000     0          
C1       C      0.831380000000     0.831380000000     0.000000000000     0          
C2       C      0.773470000000     0.773470000000     0.000000000000     0          
O2       O      0.104810000000     0.805490000000     0.000000000000     0          
C1       C      0.168620000000     0.831380000000     0.000000000000     0          
C2       C      0.226530000000     0.773470000000     0.000000000000     0          
O2       O      0.194510000000     0.104810000000     0.000000000000     0          
C1       C      0.168620000000     0.168620000000     0.000000000000     0          
C2       C      0.226530000000     0.226530000000     0.000000000000     0          
O2       O      0.895190000000     0.194510000000     0.000000000000     0          
C1       C      0.831380000000     0.168620000000     0.000000000000     0          
C2       C      0.773470000000     0.226530000000     0.000000000000     0          
O2       O      0.805490000000     0.104810000000     0.000000000000     0          
O2       O      0.895190000000     0.805490000000     0.000000000000     0          
O2       O      0.194510000000     0.895190000000     0.000000000000     0          
O2       O      0.104810000000     0.194510000000     0.000000000000     0          
O2       O      0.500000000000     0.805490000000     0.395190000000     0          
C1       C      0.500000000000     0.831380000000     0.331380000000     0          
C2       C      0.500000000000     0.773470000000     0.273470000000     0          
O2       O      0.194510000000     0.500000000000     0.395190000000     0          
C1       C      0.168620000000     0.500000000000     0.331380000000     0          
C2       C      0.226530000000     0.500000000000     0.273470000000     0          
O2       O      0.500000000000     0.194510000000     0.395190000000     0          
C1       C      0.500000000000     0.168620000000     0.331380000000     0          
C2       C      0.500000000000     0.226530000000     0.273470000000     0          
O2       O      0.805490000000     0.500000000000     0.395190000000     0          
C1       C      0.831380000000     0.500000000000     0.331380000000     0          
C2       C      0.773470000000     0.500000000000     0.273470000000     0          
O2       O      0.500000000000     0.194510000000     0.604810000000     0          
C1       C      0.500000000000     0.168620000000     0.668620000000     0          
C2       C      0.500000000000     0.226530000000     0.726530000000     0          
O2       O      0.805490000000     0.500000000000     0.604810000000     0          
C1       C      0.831380000000     0.500000000000     0.668620000000     0          
C2       C      0.773470000000     0.500000000000     0.726530000000     0          
O2       O      0.500000000000     0.805490000000     0.604810000000     0          
C1       C      0.500000000000     0.831380000000     0.668620000000     0          
C2       C      0.500000000000     0.773470000000     0.726530000000     0          
O2       O      0.194510000000     0.500000000000     0.604810000000     0          
C1       C      0.168620000000     0.500000000000     0.668620000000     0          
C2       C      0.226530000000     0.500000000000     0.726530000000     0          
O2       O      0.895190000000     0.500000000000     0.305490000000     0          
O2       O      0.895190000000     0.500000000000     0.694510000000     0          
O2       O      0.500000000000     0.895190000000     0.694510000000     0          
O2       O      0.104810000000     0.500000000000     0.694510000000     0          
O2       O      0.500000000000     0.104810000000     0.694510000000     0          
O2       O      0.104810000000     0.500000000000     0.305490000000     0          
O2       O      0.500000000000     0.104810000000     0.305490000000     0          
O2       O      0.500000000000     0.895190000000     0.305490000000     0          


