data_DISROP

_audit_creation_method RASPA-1.0
_audit_creation_date 2020-11-2
_audit_author_name 'Rocio Bueno-Perez'

_cell_length_a    17.826
_cell_length_b    17.826
_cell_length_c    17.826
_cell_angle_alpha 90
_cell_angle_beta  90
_cell_angle_gamma 90
_cell_volume      5664.5

_symmetry_cell_setting          triclinic
_symmetry_space_group_name_Hall 'P 1'
_symmetry_space_group_name_H-M  'P 1'
_symmetry_Int_Tables_number     1

_symmetry_equiv_pos_as_xyz 'x,y,z'

loop_
_atom_site_label
_atom_site_type_symbol
_atom_site_fract_x
_atom_site_fract_y
_atom_site_fract_z
_atom_site_charge
Zr1      Zr     0.489430000000     0.511180000000     0.638160000000     0          
O2       O      0.591700000000     0.513100000000     0.714200000000     0          
O3       O      0.691200000000     0.493500000000     0.626600000000     0          
O4       O      0.371500000000     0.520400000000     0.690900000000     0          
O5       O      0.285700000000     0.521800000000     0.588800000000     0          
O6       O      0.430800000000     0.581100000000     0.556300000000     0          
C7       C      0.658010000000     0.505000000000     0.689220000000     0          
C8       C      0.708000000000     0.504500000000     0.759980000000     0          
C9       C      0.308830000000     0.520200000000     0.656480000000     0          
C10      C      0.239480000000     0.514700000000     0.708150000000     0          
H11      H      0.696390000000     0.459430000000     0.790260000000     0          
N12      N      0.174300000000     0.561100000000     0.675300000000     0          
H13      H      0.163670000000     0.544560000000     0.628230000000     0          
H14      H      0.211710000000     0.468100000000     0.696400000000     0          
H15      H      0.187780000000     0.610350000000     0.673400000000     0          
H16      H      0.696520000000     0.549240000000     0.790830000000     0          
Zr17     Zr     0.010570000000     0.988820000000     0.638160000000     0          
O18      O      0.908300000000     0.986900000000     0.714200000000     0          
O19      O      0.808800000000     0.006500000000     0.626600000000     0          
O20      O      0.128500000000     0.979600000000     0.690900000000     0          
O21      O      0.214300000000     0.978200000000     0.588800000000     0          
O22      O      0.069200000000     0.918900000000     0.556300000000     0          
C23      C      0.841990000000     0.995000000000     0.689220000000     0          
C24      C      0.792000000000     0.995500000000     0.759980000000     0          
C25      C      0.191170000000     0.979800000000     0.656480000000     0          
C26      C      0.260520000000     0.985300000000     0.708150000000     0          
H27      H      0.803610000000     0.040570000000     0.790260000000     0          
N28      N      0.325700000000     0.938900000000     0.675300000000     0          
H29      H      0.366910000000     0.944080000000     0.704950000000     0          
H30      H      0.288290000000     0.031900000000     0.696400000000     0          
H31      H      0.312220000000     0.889650000000     0.673400000000     0          
H32      H      0.803480000000     0.950760000000     0.790830000000     0          
Zr33     Zr     0.010570000000     0.511180000000     0.861840000000     0          
O34      O      0.908300000000     0.513100000000     0.785800000000     0          
O35      O      0.808800000000     0.493500000000     0.873400000000     0          
O36      O      0.128500000000     0.520400000000     0.809100000000     0          
O37      O      0.214300000000     0.521800000000     0.911200000000     0          
O38      O      0.069200000000     0.581100000000     0.943700000000     0          
C39      C      0.841990000000     0.505000000000     0.810780000000     0          
C40      C      0.792000000000     0.504500000000     0.740020000000     0          
C41      C      0.191170000000     0.520200000000     0.843520000000     0          
C42      C      0.260520000000     0.514700000000     0.791850000000     0          
N43      N      0.820500000000     0.445700000000     0.683300000000     0          
H44      H      0.869020000000     0.455840000000     0.671200000000     0          
H45      H      0.791710000000     0.447290000000     0.641210000000     0          
H46      H      0.292220000000     0.460810000000     0.805300000000     0          
H47      H      0.803480000000     0.549240000000     0.709170000000     0          
Zr48     Zr     0.489430000000     0.988820000000     0.861840000000     0          
O49      O      0.591700000000     0.986900000000     0.785800000000     0          
O50      O      0.691200000000     0.006500000000     0.873400000000     0          
O51      O      0.371500000000     0.979600000000     0.809100000000     0          
O52      O      0.285700000000     0.978200000000     0.911200000000     0          
O53      O      0.430800000000     0.918900000000     0.943700000000     0          
C54      C      0.658010000000     0.995000000000     0.810780000000     0          
C55      C      0.708000000000     0.995500000000     0.740020000000     0          
C56      C      0.308830000000     0.979800000000     0.843520000000     0          
C57      C      0.239480000000     0.985300000000     0.791850000000     0          
H58      H      0.211710000000     0.031900000000     0.803600000000     0          
N59      N      0.679500000000     0.054300000000     0.683300000000     0          
H60      H      0.630980000000     0.044160000000     0.671200000000     0          
H61      H      0.708290000000     0.052710000000     0.641210000000     0          
H62      H      0.205760000000     0.942340000000     0.802100000000     0          
H63      H      0.696520000000     0.950760000000     0.709170000000     0          
Zr64     Zr     0.638160000000     0.489430000000     0.511180000000     0          
O65      O      0.714200000000     0.591700000000     0.513100000000     0          
O66      O      0.626600000000     0.691200000000     0.493500000000     0          
O67      O      0.690900000000     0.371500000000     0.520400000000     0          
O68      O      0.588800000000     0.285700000000     0.521800000000     0          
O69      O      0.556300000000     0.430800000000     0.581100000000     0          
C70      C      0.689220000000     0.658010000000     0.505000000000     0          
C71      C      0.759980000000     0.708000000000     0.504500000000     0          
C72      C      0.656480000000     0.308830000000     0.520200000000     0          
C73      C      0.708150000000     0.239480000000     0.514700000000     0          
N74      N      0.675300000000     0.174300000000     0.561100000000     0          
H75      H      0.704950000000     0.133090000000     0.555920000000     0          
H76      H      0.696400000000     0.211710000000     0.468100000000     0          
N77      N      0.816700000000     0.679500000000     0.445700000000     0          
H78      H      0.828800000000     0.630980000000     0.455840000000     0          
H79      H      0.858790000000     0.708290000000     0.447290000000     0          
H80      H      0.673400000000     0.187780000000     0.610350000000     0          
H81      H      0.790830000000     0.696520000000     0.549240000000     0          
Zr82     Zr     0.638160000000     0.010570000000     0.988820000000     0          
O83      O      0.714200000000     0.908300000000     0.986900000000     0          
O84      O      0.626600000000     0.808800000000     0.006500000000     0          
O85      O      0.690900000000     0.128500000000     0.979600000000     0          
O86      O      0.588800000000     0.214300000000     0.978200000000     0          
O87      O      0.556300000000     0.069200000000     0.918900000000     0          
C88      C      0.689220000000     0.841990000000     0.995000000000     0          
C89      C      0.759980000000     0.792000000000     0.995500000000     0          
C90      C      0.656480000000     0.191170000000     0.979800000000     0          
C91      C      0.708150000000     0.260520000000     0.985300000000     0          
H92      H      0.790260000000     0.803610000000     0.040570000000     0          
H93      H      0.696400000000     0.288290000000     0.031900000000     0          
H94      H      0.697900000000     0.294240000000     0.942340000000     0          
H95      H      0.790830000000     0.803480000000     0.950760000000     0          
Zr96     Zr     0.861840000000     0.010570000000     0.511180000000     0          
O97      O      0.785800000000     0.908300000000     0.513100000000     0          
O98      O      0.873400000000     0.808800000000     0.493500000000     0          
O99      O      0.809100000000     0.128500000000     0.520400000000     0          
O100     O      0.911200000000     0.214300000000     0.521800000000     0          
O101     O      0.943700000000     0.069200000000     0.581100000000     0          
C102     C      0.810780000000     0.841990000000     0.505000000000     0          
C103     C      0.740020000000     0.792000000000     0.504500000000     0          
C104     C      0.843520000000     0.191170000000     0.520200000000     0          
C105     C      0.791850000000     0.260520000000     0.514700000000     0          
H106     H      0.709740000000     0.803610000000     0.459430000000     0          
H107     H      0.803600000000     0.288290000000     0.468100000000     0          
H108     H      0.802100000000     0.294240000000     0.557660000000     0          
H109     H      0.709170000000     0.803480000000     0.549240000000     0          
Zr110    Zr     0.861840000000     0.489430000000     0.988820000000     0          
O111     O      0.785800000000     0.591700000000     0.986900000000     0          
O112     O      0.873400000000     0.691200000000     0.006500000000     0          
O113     O      0.809100000000     0.371500000000     0.979600000000     0          
O114     O      0.911200000000     0.285700000000     0.978200000000     0          
O115     O      0.943700000000     0.430800000000     0.918900000000     0          
C116     C      0.810780000000     0.658010000000     0.995000000000     0          
C117     C      0.740020000000     0.708000000000     0.995500000000     0          
C118     C      0.843520000000     0.308830000000     0.979800000000     0          
C119     C      0.791850000000     0.239480000000     0.985300000000     0          
N120     N      0.824700000000     0.174300000000     0.938900000000     0          
H121     H      0.795050000000     0.133090000000     0.944080000000     0          
H122     H      0.803600000000     0.211710000000     0.031900000000     0          
N123     N      0.683300000000     0.679500000000     0.054300000000     0          
H124     H      0.671200000000     0.630980000000     0.044160000000     0          
H125     H      0.641210000000     0.708290000000     0.052710000000     0          
H126     H      0.826600000000     0.187780000000     0.889650000000     0          
H127     H      0.709170000000     0.696520000000     0.950760000000     0          
Zr128    Zr     0.511180000000     0.638160000000     0.489430000000     0          
O129     O      0.513100000000     0.714200000000     0.591700000000     0          
O130     O      0.493500000000     0.626600000000     0.691200000000     0          
O131     O      0.520400000000     0.690900000000     0.371500000000     0          
O132     O      0.521800000000     0.588800000000     0.285700000000     0          
O133     O      0.581100000000     0.556300000000     0.430800000000     0          
C134     C      0.505000000000     0.689220000000     0.658010000000     0          
C135     C      0.504500000000     0.759980000000     0.708000000000     0          
C136     C      0.520200000000     0.656480000000     0.308830000000     0          
C137     C      0.514700000000     0.708150000000     0.239480000000     0          
H138     H      0.459430000000     0.790260000000     0.696390000000     0          
N139     N      0.456100000000     0.675400000000     0.184500000000     0          
H140     H      0.467650000000     0.626780000000     0.174300000000     0          
H141     H      0.456460000000     0.702470000000     0.141200000000     0          
H142     H      0.557660000000     0.697900000000     0.205760000000     0          
H143     H      0.549240000000     0.790830000000     0.696520000000     0          
Zr144    Zr     0.988820000000     0.638160000000     0.010570000000     0          
O145     O      0.986900000000     0.714200000000     0.908300000000     0          
O146     O      0.006500000000     0.626600000000     0.808800000000     0          
O147     O      0.979600000000     0.690900000000     0.128500000000     0          
O148     O      0.978200000000     0.588800000000     0.214300000000     0          
O149     O      0.918900000000     0.556300000000     0.069200000000     0          
C150     C      0.995000000000     0.689220000000     0.841990000000     0          
C151     C      0.995500000000     0.759980000000     0.792000000000     0          
C152     C      0.979800000000     0.656480000000     0.191170000000     0          
C153     C      0.985300000000     0.708150000000     0.260520000000     0          
N154     N      0.938900000000     0.675300000000     0.325700000000     0          
H155     H      0.944080000000     0.704950000000     0.366910000000     0          
H156     H      0.955440000000     0.628230000000     0.336330000000     0          
H157     H      0.031900000000     0.696400000000     0.288290000000     0          
N158     N      0.054300000000     0.816700000000     0.820500000000     0          
H159     H      0.044160000000     0.828800000000     0.869020000000     0          
H160     H      0.052710000000     0.858790000000     0.791710000000     0          
H161     H      0.950760000000     0.790830000000     0.803480000000     0          
Zr162    Zr     0.511180000000     0.861840000000     0.010570000000     0          
O163     O      0.513100000000     0.785800000000     0.908300000000     0          
O164     O      0.493500000000     0.873400000000     0.808800000000     0          
O165     O      0.520400000000     0.809100000000     0.128500000000     0          
O166     O      0.521800000000     0.911200000000     0.214300000000     0          
O167     O      0.581100000000     0.943700000000     0.069200000000     0          
C168     C      0.505000000000     0.810780000000     0.841990000000     0          
C169     C      0.504500000000     0.740020000000     0.792000000000     0          
C170     C      0.520200000000     0.843520000000     0.191170000000     0          
C171     C      0.514700000000     0.791850000000     0.260520000000     0          
H172     H      0.468100000000     0.803600000000     0.288290000000     0          
N173     N      0.445700000000     0.683300000000     0.820500000000     0          
H174     H      0.399160000000     0.704180000000     0.817560000000     0          
H175     H      0.447290000000     0.641210000000     0.791710000000     0          
H176     H      0.557660000000     0.802100000000     0.294240000000     0          
H177     H      0.549240000000     0.709170000000     0.803480000000     0          
Zr178    Zr     0.988820000000     0.861840000000     0.489430000000     0          
O179     O      0.986900000000     0.785800000000     0.591700000000     0          
O180     O      0.006500000000     0.873400000000     0.691200000000     0          
O181     O      0.979600000000     0.809100000000     0.371500000000     0          
O182     O      0.978200000000     0.911200000000     0.285700000000     0          
O183     O      0.918900000000     0.943700000000     0.430800000000     0          
C184     C      0.995000000000     0.810780000000     0.658010000000     0          
C185     C      0.995500000000     0.740020000000     0.708000000000     0          
C186     C      0.979800000000     0.843520000000     0.308830000000     0          
C187     C      0.985300000000     0.791850000000     0.239480000000     0          
H188     H      0.040570000000     0.709740000000     0.696390000000     0          
H189     H      0.031900000000     0.803600000000     0.211710000000     0          
H190     H      0.942340000000     0.802100000000     0.205760000000     0          
H191     H      0.950760000000     0.709170000000     0.696520000000     0          
Zr192    Zr     0.510570000000     0.488820000000     0.361840000000     0          
O193     O      0.408300000000     0.486900000000     0.285800000000     0          
O194     O      0.308800000000     0.506500000000     0.373400000000     0          
O195     O      0.628500000000     0.479600000000     0.309100000000     0          
O196     O      0.714300000000     0.478200000000     0.411200000000     0          
O197     O      0.569200000000     0.418900000000     0.443700000000     0          
C198     C      0.341990000000     0.495000000000     0.310780000000     0          
C199     C      0.292000000000     0.495500000000     0.240020000000     0          
C200     C      0.691170000000     0.479800000000     0.343520000000     0          
C201     C      0.760520000000     0.485300000000     0.291850000000     0          
H202     H      0.303610000000     0.540570000000     0.209740000000     0          
N203     N      0.825700000000     0.438900000000     0.324700000000     0          
H204     H      0.836330000000     0.455440000000     0.371770000000     0          
H205     H      0.788290000000     0.531900000000     0.303600000000     0          
H206     H      0.812220000000     0.389650000000     0.326600000000     0          
H207     H      0.303480000000     0.450760000000     0.209170000000     0          
Zr208    Zr     0.989430000000     0.011180000000     0.361840000000     0          
O209     O      0.091700000000     0.013100000000     0.285800000000     0          
O210     O      0.191200000000     0.993500000000     0.373400000000     0          
O211     O      0.871500000000     0.020400000000     0.309100000000     0          
O212     O      0.785700000000     0.021800000000     0.411200000000     0          
O213     O      0.930800000000     0.081100000000     0.443700000000     0          
C214     C      0.158010000000     0.005000000000     0.310780000000     0          
C215     C      0.208000000000     0.004500000000     0.240020000000     0          
C216     C      0.808830000000     0.020200000000     0.343520000000     0          
C217     C      0.739480000000     0.014700000000     0.291850000000     0          
N218     N      0.179500000000     0.945700000000     0.183300000000     0          
H219     H      0.182440000000     0.899160000000     0.204180000000     0          
H220     H      0.130980000000     0.955840000000     0.171200000000     0          
N221     N      0.684500000000     0.956100000000     0.324600000000     0          
H222     H      0.674300000000     0.967650000000     0.373220000000     0          
H223     H      0.705690000000     0.909720000000     0.322150000000     0          
H224     H      0.705760000000     0.057660000000     0.302100000000     0          
H225     H      0.196520000000     0.049240000000     0.209170000000     0          
Zr226    Zr     0.989430000000     0.488820000000     0.138160000000     0          
O227     O      0.091700000000     0.486900000000     0.214200000000     0          
O228     O      0.191200000000     0.506500000000     0.126600000000     0          
O229     O      0.871500000000     0.479600000000     0.190900000000     0          
O230     O      0.785700000000     0.478200000000     0.088800000000     0          
O231     O      0.930800000000     0.418900000000     0.056300000000     0          
C232     C      0.158010000000     0.495000000000     0.189220000000     0          
C233     C      0.208000000000     0.495500000000     0.259980000000     0          
C234     C      0.808830000000     0.479800000000     0.156480000000     0          
C235     C      0.739480000000     0.485300000000     0.208150000000     0          
N236     N      0.179500000000     0.554300000000     0.316700000000     0          
H237     H      0.130980000000     0.544160000000     0.328800000000     0          
H238     H      0.208290000000     0.552710000000     0.358790000000     0          
H239     H      0.700870000000     0.435680000000     0.196440000000     0          
H240     H      0.196520000000     0.450760000000     0.290830000000     0          
Zr241    Zr     0.510570000000     0.011180000000     0.138160000000     0          
O242     O      0.408300000000     0.013100000000     0.214200000000     0          
O243     O      0.308800000000     0.993500000000     0.126600000000     0          
O244     O      0.628500000000     0.020400000000     0.190900000000     0          
O245     O      0.714300000000     0.021800000000     0.088800000000     0          
O246     O      0.569200000000     0.081100000000     0.056300000000     0          
C247     C      0.341990000000     0.005000000000     0.189220000000     0          
C248     C      0.292000000000     0.004500000000     0.259980000000     0          
C249     C      0.691170000000     0.020200000000     0.156480000000     0          
C250     C      0.760520000000     0.014700000000     0.208150000000     0          
H251     H      0.303610000000     0.959430000000     0.290260000000     0          
H252     H      0.788290000000     0.968100000000     0.196400000000     0          
H253     H      0.794240000000     0.057660000000     0.197900000000     0          
H254     H      0.303480000000     0.049240000000     0.290830000000     0          
Zr255    Zr     0.361840000000     0.510570000000     0.488820000000     0          
O256     O      0.285800000000     0.408300000000     0.486900000000     0          
O257     O      0.373400000000     0.308800000000     0.506500000000     0          
O258     O      0.309100000000     0.628500000000     0.479600000000     0          
O259     O      0.411200000000     0.714300000000     0.478200000000     0          
O260     O      0.443700000000     0.569200000000     0.418900000000     0          
C261     C      0.310780000000     0.341990000000     0.495000000000     0          
C262     C      0.240020000000     0.292000000000     0.495500000000     0          
C263     C      0.343520000000     0.691170000000     0.479800000000     0          
C264     C      0.291850000000     0.760520000000     0.485300000000     0          
H265     H      0.303600000000     0.788290000000     0.531900000000     0          
N266     N      0.183300000000     0.320500000000     0.554300000000     0          
H267     H      0.204180000000     0.317560000000     0.600840000000     0          
H268     H      0.141210000000     0.291710000000     0.552710000000     0          
H269     H      0.302100000000     0.794240000000     0.442340000000     0          
H270     H      0.209170000000     0.303480000000     0.450760000000     0          
Zr271    Zr     0.361840000000     0.989430000000     0.011180000000     0          
O272     O      0.285800000000     0.091700000000     0.013100000000     0          
O273     O      0.373400000000     0.191200000000     0.993500000000     0          
O274     O      0.309100000000     0.871500000000     0.020400000000     0          
O275     O      0.411200000000     0.785700000000     0.021800000000     0          
O276     O      0.443700000000     0.930800000000     0.081100000000     0          
C277     C      0.310780000000     0.158010000000     0.005000000000     0          
C278     C      0.240020000000     0.208000000000     0.004500000000     0          
C279     C      0.343520000000     0.808830000000     0.020200000000     0          
C280     C      0.291850000000     0.739480000000     0.014700000000     0          
N281     N      0.324700000000     0.674300000000     0.061100000000     0          
H282     H      0.295050000000     0.633090000000     0.055920000000     0          
H283     H      0.371770000000     0.663670000000     0.044560000000     0          
H284     H      0.303600000000     0.711710000000     0.968100000000     0          
N285     N      0.183300000000     0.179500000000     0.945700000000     0          
H286     H      0.204180000000     0.182440000000     0.899160000000     0          
H287     H      0.171200000000     0.130980000000     0.955840000000     0          
H288     H      0.209170000000     0.196520000000     0.049240000000     0          
Zr289    Zr     0.138160000000     0.989430000000     0.488820000000     0          
O290     O      0.214200000000     0.091700000000     0.486900000000     0          
O291     O      0.126600000000     0.191200000000     0.506500000000     0          
O292     O      0.190900000000     0.871500000000     0.479600000000     0          
O293     O      0.088800000000     0.785700000000     0.478200000000     0          
O294     O      0.056300000000     0.930800000000     0.418900000000     0          
C295     C      0.189220000000     0.158010000000     0.495000000000     0          
C296     C      0.259980000000     0.208000000000     0.495500000000     0          
C297     C      0.156480000000     0.808830000000     0.479800000000     0          
C298     C      0.208150000000     0.739480000000     0.485300000000     0          
H299     H      0.290260000000     0.196390000000     0.540570000000     0          
N300     N      0.175300000000     0.674300000000     0.438900000000     0          
H301     H      0.204950000000     0.633090000000     0.444080000000     0          
H302     H      0.196400000000     0.711710000000     0.531900000000     0          
H303     H      0.173400000000     0.687780000000     0.389650000000     0          
H304     H      0.290830000000     0.196520000000     0.450760000000     0          
Zr305    Zr     0.138160000000     0.510570000000     0.011180000000     0          
O306     O      0.214200000000     0.408300000000     0.013100000000     0          
O307     O      0.126600000000     0.308800000000     0.993500000000     0          
O308     O      0.190900000000     0.628500000000     0.020400000000     0          
O309     O      0.088800000000     0.714300000000     0.021800000000     0          
O310     O      0.056300000000     0.569200000000     0.081100000000     0          
C311     C      0.189220000000     0.341990000000     0.005000000000     0          
C312     C      0.259980000000     0.292000000000     0.004500000000     0          
C313     C      0.156480000000     0.691170000000     0.020200000000     0          
C314     C      0.208150000000     0.760520000000     0.014700000000     0          
H315     H      0.290260000000     0.303610000000     0.959430000000     0          
H316     H      0.196400000000     0.788290000000     0.968100000000     0          
H317     H      0.197900000000     0.794240000000     0.057660000000     0          
H318     H      0.290830000000     0.303480000000     0.049240000000     0          
Zr319    Zr     0.488820000000     0.361840000000     0.510570000000     0          
O320     O      0.486900000000     0.285800000000     0.408300000000     0          
O321     O      0.506500000000     0.373400000000     0.308800000000     0          
O322     O      0.479600000000     0.309100000000     0.628500000000     0          
O323     O      0.478200000000     0.411200000000     0.714300000000     0          
O324     O      0.418900000000     0.443700000000     0.569200000000     0          
C325     C      0.495000000000     0.310780000000     0.341990000000     0          
C326     C      0.495500000000     0.240020000000     0.292000000000     0          
C327     C      0.479800000000     0.343520000000     0.691170000000     0          
C328     C      0.485300000000     0.291850000000     0.760520000000     0          
H329     H      0.531900000000     0.303600000000     0.788290000000     0          
N330     N      0.554300000000     0.183300000000     0.320500000000     0          
H331     H      0.544160000000     0.171200000000     0.369020000000     0          
H332     H      0.552710000000     0.141210000000     0.291710000000     0          
H333     H      0.442340000000     0.302100000000     0.794240000000     0          
H334     H      0.450760000000     0.209170000000     0.303480000000     0          
Zr335    Zr     0.011180000000     0.361840000000     0.989430000000     0          
O336     O      0.013100000000     0.285800000000     0.091700000000     0          
O337     O      0.993500000000     0.373400000000     0.191200000000     0          
O338     O      0.020400000000     0.309100000000     0.871500000000     0          
O339     O      0.021800000000     0.411200000000     0.785700000000     0          
O340     O      0.081100000000     0.443700000000     0.930800000000     0          
C341     C      0.005000000000     0.310780000000     0.158010000000     0          
C342     C      0.004500000000     0.240020000000     0.208000000000     0          
C343     C      0.020200000000     0.343520000000     0.808830000000     0          
C344     C      0.014700000000     0.291850000000     0.739480000000     0          
H345     H      0.959430000000     0.209740000000     0.196390000000     0          
H346     H      0.968100000000     0.303600000000     0.711710000000     0          
N347     N      0.945700000000     0.183300000000     0.179500000000     0          
H348     H      0.955840000000     0.171200000000     0.130980000000     0          
H349     H      0.947290000000     0.141210000000     0.208290000000     0          
H350     H      0.057660000000     0.302100000000     0.705760000000     0          
Zr351    Zr     0.488820000000     0.138160000000     0.989430000000     0          
O352     O      0.486900000000     0.214200000000     0.091700000000     0          
O353     O      0.506500000000     0.126600000000     0.191200000000     0          
O354     O      0.479600000000     0.190900000000     0.871500000000     0          
O355     O      0.478200000000     0.088800000000     0.785700000000     0          
O356     O      0.418900000000     0.056300000000     0.930800000000     0          
C357     C      0.495000000000     0.189220000000     0.158010000000     0          
C358     C      0.495500000000     0.259980000000     0.208000000000     0          
C359     C      0.479800000000     0.156480000000     0.808830000000     0          
C360     C      0.485300000000     0.208150000000     0.739480000000     0          
H361     H      0.540570000000     0.290260000000     0.196390000000     0          
N362     N      0.438900000000     0.175300000000     0.674300000000     0          
H363     H      0.444080000000     0.204950000000     0.633090000000     0          
H364     H      0.455440000000     0.128230000000     0.663670000000     0          
H365     H      0.531900000000     0.196400000000     0.711710000000     0          
H366     H      0.450760000000     0.290830000000     0.196520000000     0          
Zr367    Zr     0.011180000000     0.138160000000     0.510570000000     0          
O368     O      0.013100000000     0.214200000000     0.408300000000     0          
O369     O      0.993500000000     0.126600000000     0.308800000000     0          
O370     O      0.020400000000     0.190900000000     0.628500000000     0          
O371     O      0.021800000000     0.088800000000     0.714300000000     0          
O372     O      0.081100000000     0.056300000000     0.569200000000     0          
C373     C      0.005000000000     0.189220000000     0.341990000000     0          
C374     C      0.004500000000     0.259980000000     0.292000000000     0          
C375     C      0.020200000000     0.156480000000     0.691170000000     0          
C376     C      0.014700000000     0.208150000000     0.760520000000     0          
H377     H      0.959430000000     0.290260000000     0.303610000000     0          
N378     N      0.061100000000     0.175300000000     0.825700000000     0          
H379     H      0.044560000000     0.128230000000     0.836330000000     0          
H380     H      0.968100000000     0.196400000000     0.788290000000     0          
H381     H      0.110350000000     0.173400000000     0.812220000000     0          
H382     H      0.049240000000     0.290830000000     0.303480000000     0          
O383     O      0.568600000000     0.568600000000     0.568600000000     0          
O384     O      0.931400000000     0.931400000000     0.568600000000     0          
O385     O      0.931400000000     0.568600000000     0.931400000000     0          
O386     O      0.568600000000     0.931400000000     0.931400000000     0          
O387     O      0.431400000000     0.431400000000     0.431400000000     0          
O388     O      0.068600000000     0.068600000000     0.431400000000     0          
O389     O      0.068600000000     0.431400000000     0.068600000000     0          
O390     O      0.431400000000     0.068600000000     0.068600000000     0          
H391     H      0.707930000000     0.539540000000     0.195790000000     0          
H392     H      0.299020000000     0.564650000000     0.802460000000     0          


