data_DITJOH

_audit_creation_method RASPA-1.0
_audit_creation_date 2020-11-2
_audit_author_name 'Rocio Bueno-Perez'

_cell_length_a    19.936
_cell_length_b    19.936
_cell_length_c    42.251
_cell_angle_alpha 90
_cell_angle_beta  90
_cell_angle_gamma 90
_cell_volume      16792.4

_symmetry_cell_setting          tetragonal
_symmetry_space_group_name_Hall 'P 1'
_symmetry_space_group_name_H-M  'P 1'
_symmetry_Int_Tables_number     1

_symmetry_equiv_pos_as_xyz 'x,y,z'

loop_
_atom_site_label
_atom_site_type_symbol
_atom_site_fract_x
_atom_site_fract_y
_atom_site_fract_z
_atom_site_charge
O1       O      0.000800000000     0.092400000000     0.084430000000     0          
O3       O      0.003100000000     0.176200000000     0.047920000000     0          
O5       O      0.935500000000     0.063500000000     0.028310000000     0          
C1       C      0.999200000000     0.151600000000     0.077250000000     0          
C2       C      0.003700000000     0.202600000000     0.102510000000     0          
C3       C      0.992000000000     0.180400000000     0.133210000000     0          
H1       H      0.981700000000     0.134500000000     0.137000000000     0          
C4       C      0.995500000000     0.225200000000     0.158360000000     0          
H2       H      0.987500000000     0.210000000000     0.179300000000     0          
C5       C      0.010600000000     0.292200000000     0.152810000000     0          
C6       C      0.022300000000     0.314400000000     0.122120000000     0          
H3       H      0.032600000000     0.360300000000     0.118300000000     0          
C7       C      0.018800000000     0.269600000000     0.096970000000     0          
H4       H      0.026800000000     0.284800000000     0.076000000000     0          
C8       C      0.011700000000     0.342000000000     0.180310000000     0          
C9       C      0.957700000000     0.341600000000     0.201120000000     0          
H5       H      0.924800000000     0.307300000000     0.199700000000     0          
C10      C      0.951900000000     0.391500000000     0.223940000000     0          
H6       H      0.914900000000     0.391300000000     0.238200000000     0          
C11      C      0.000000000000     0.441700000000     0.225960000000     0          
C12      C      0.054000000000     0.442100000000     0.205160000000     0          
H7       H      0.087000000000     0.476400000000     0.206500000000     0          
C13      C      0.059900000000     0.392200000000     0.182330000000     0          
H8       H      0.096800000000     0.392500000000     0.168100000000     0          
Zr1      Zr     0.000000000000     0.000000000000     0.057810000000     0          
Zr2      Zr     0.000840000000     0.125130000000     0.000000000000     0          
C14      C      0.000000000000     0.500000000000     0.250000000000     0          
O1       O      0.907600000000     0.000800000000     0.084430000000     0          
O3       O      0.823800000000     0.003100000000     0.047920000000     0          
O5       O      0.936500000000     0.935500000000     0.028310000000     0          
C1       C      0.848400000000     0.999200000000     0.077250000000     0          
C2       C      0.797400000000     0.003700000000     0.102510000000     0          
C3       C      0.819600000000     0.992000000000     0.133210000000     0          
H1       H      0.865500000000     0.981700000000     0.137000000000     0          
C4       C      0.774800000000     0.995500000000     0.158360000000     0          
H2       H      0.790000000000     0.987500000000     0.179300000000     0          
C5       C      0.707800000000     0.010600000000     0.152810000000     0          
C6       C      0.685600000000     0.022300000000     0.122120000000     0          
H3       H      0.639700000000     0.032600000000     0.118300000000     0          
C7       C      0.730400000000     0.018800000000     0.096970000000     0          
H4       H      0.715200000000     0.026800000000     0.076000000000     0          
C8       C      0.658000000000     0.011700000000     0.180310000000     0          
C9       C      0.658400000000     0.957700000000     0.201120000000     0          
H5       H      0.692700000000     0.924800000000     0.199700000000     0          
C10      C      0.608500000000     0.951900000000     0.223940000000     0          
H6       H      0.608700000000     0.914900000000     0.238200000000     0          
C11      C      0.558300000000     0.000000000000     0.225960000000     0          
C12      C      0.557900000000     0.054000000000     0.205160000000     0          
H7       H      0.523600000000     0.087000000000     0.206500000000     0          
C13      C      0.607800000000     0.059900000000     0.182330000000     0          
H8       H      0.607500000000     0.096800000000     0.168100000000     0          
Zr2      Zr     0.874870000000     0.000840000000     0.000000000000     0          
C14      C      0.500000000000     0.000000000000     0.250000000000     0          
O1       O      0.999200000000     0.907600000000     0.084430000000     0          
O3       O      0.996900000000     0.823800000000     0.047920000000     0          
O5       O      0.064500000000     0.936500000000     0.028310000000     0          
C1       C      0.000800000000     0.848400000000     0.077250000000     0          
C2       C      0.996300000000     0.797400000000     0.102510000000     0          
C3       C      0.008000000000     0.819600000000     0.133210000000     0          
H1       H      0.018300000000     0.865500000000     0.137000000000     0          
C4       C      0.004500000000     0.774800000000     0.158360000000     0          
H2       H      0.012500000000     0.790000000000     0.179300000000     0          
C5       C      0.989400000000     0.707800000000     0.152810000000     0          
C6       C      0.977700000000     0.685600000000     0.122120000000     0          
H3       H      0.967400000000     0.639700000000     0.118300000000     0          
C7       C      0.981200000000     0.730400000000     0.096970000000     0          
H4       H      0.973200000000     0.715200000000     0.076000000000     0          
C8       C      0.988300000000     0.658000000000     0.180310000000     0          
C9       C      0.042300000000     0.658400000000     0.201120000000     0          
H5       H      0.075200000000     0.692700000000     0.199700000000     0          
C10      C      0.048100000000     0.608500000000     0.223940000000     0          
H6       H      0.085100000000     0.608700000000     0.238200000000     0          
C11      C      0.000000000000     0.558300000000     0.225960000000     0          
C12      C      0.946000000000     0.557900000000     0.205160000000     0          
H7       H      0.913000000000     0.523600000000     0.206500000000     0          
C13      C      0.940100000000     0.607800000000     0.182330000000     0          
H8       H      0.903200000000     0.607500000000     0.168100000000     0          
Zr2      Zr     0.999160000000     0.874870000000     0.000000000000     0          
O1       O      0.092400000000     0.999200000000     0.084430000000     0          
O3       O      0.176200000000     0.996900000000     0.047920000000     0          
O5       O      0.063500000000     0.064500000000     0.028310000000     0          
C1       C      0.151600000000     0.000800000000     0.077250000000     0          
C2       C      0.202600000000     0.996300000000     0.102510000000     0          
C3       C      0.180400000000     0.008000000000     0.133210000000     0          
H1       H      0.134500000000     0.018300000000     0.137000000000     0          
C4       C      0.225200000000     0.004500000000     0.158360000000     0          
H2       H      0.210000000000     0.012500000000     0.179300000000     0          
C5       C      0.292200000000     0.989400000000     0.152810000000     0          
C6       C      0.314400000000     0.977700000000     0.122120000000     0          
H3       H      0.360300000000     0.967400000000     0.118300000000     0          
C7       C      0.269600000000     0.981200000000     0.096970000000     0          
H4       H      0.284800000000     0.973200000000     0.076000000000     0          
C8       C      0.342000000000     0.988300000000     0.180310000000     0          
C9       C      0.341600000000     0.042300000000     0.201120000000     0          
H5       H      0.307300000000     0.075200000000     0.199700000000     0          
C10      C      0.391500000000     0.048100000000     0.223940000000     0          
H6       H      0.391300000000     0.085100000000     0.238200000000     0          
C11      C      0.441700000000     0.000000000000     0.225960000000     0          
C12      C      0.442100000000     0.946000000000     0.205160000000     0          
H7       H      0.476400000000     0.913000000000     0.206500000000     0          
C13      C      0.392200000000     0.940100000000     0.182330000000     0          
H8       H      0.392500000000     0.903200000000     0.168100000000     0          
Zr2      Zr     0.125130000000     0.999160000000     0.000000000000     0          
O1       O      0.999200000000     0.907600000000     0.915570000000     0          
O3       O      0.996900000000     0.823800000000     0.952080000000     0          
O5       O      0.064500000000     0.936500000000     0.971690000000     0          
C1       C      0.000800000000     0.848400000000     0.922750000000     0          
C2       C      0.996300000000     0.797400000000     0.897490000000     0          
C3       C      0.008000000000     0.819600000000     0.866790000000     0          
H1       H      0.018300000000     0.865500000000     0.863000000000     0          
C4       C      0.004500000000     0.774800000000     0.841640000000     0          
H2       H      0.012500000000     0.790000000000     0.820700000000     0          
C5       C      0.989400000000     0.707800000000     0.847190000000     0          
C6       C      0.977700000000     0.685600000000     0.877880000000     0          
H3       H      0.967400000000     0.639700000000     0.881700000000     0          
C7       C      0.981200000000     0.730400000000     0.903030000000     0          
H4       H      0.973200000000     0.715200000000     0.924000000000     0          
C8       C      0.988300000000     0.658000000000     0.819690000000     0          
C9       C      0.042300000000     0.658400000000     0.798880000000     0          
H5       H      0.075200000000     0.692700000000     0.800300000000     0          
C10      C      0.048100000000     0.608500000000     0.776060000000     0          
H6       H      0.085100000000     0.608700000000     0.761800000000     0          
C11      C      0.000000000000     0.558300000000     0.774040000000     0          
C12      C      0.946000000000     0.557900000000     0.794840000000     0          
H7       H      0.913000000000     0.523600000000     0.793500000000     0          
C13      C      0.940100000000     0.607800000000     0.817670000000     0          
H8       H      0.903200000000     0.607500000000     0.831900000000     0          
Zr1      Zr     0.000000000000     0.000000000000     0.942190000000     0          
C14      C      0.000000000000     0.500000000000     0.750000000000     0          
O1       O      0.092400000000     0.999200000000     0.915570000000     0          
O3       O      0.176200000000     0.996900000000     0.952080000000     0          
O5       O      0.063500000000     0.064500000000     0.971690000000     0          
C1       C      0.151600000000     0.000800000000     0.922750000000     0          
C2       C      0.202600000000     0.996300000000     0.897490000000     0          
C3       C      0.180400000000     0.008000000000     0.866790000000     0          
H1       H      0.134500000000     0.018300000000     0.863000000000     0          
C4       C      0.225200000000     0.004500000000     0.841640000000     0          
H2       H      0.210000000000     0.012500000000     0.820700000000     0          
C5       C      0.292200000000     0.989400000000     0.847190000000     0          
C6       C      0.314400000000     0.977700000000     0.877880000000     0          
H3       H      0.360300000000     0.967400000000     0.881700000000     0          
C7       C      0.269600000000     0.981200000000     0.903030000000     0          
H4       H      0.284800000000     0.973200000000     0.924000000000     0          
C8       C      0.342000000000     0.988300000000     0.819690000000     0          
C9       C      0.341600000000     0.042300000000     0.798880000000     0          
H5       H      0.307300000000     0.075200000000     0.800300000000     0          
C10      C      0.391500000000     0.048100000000     0.776060000000     0          
H6       H      0.391300000000     0.085100000000     0.761800000000     0          
C11      C      0.441700000000     0.000000000000     0.774040000000     0          
C12      C      0.442100000000     0.946000000000     0.794840000000     0          
H7       H      0.476400000000     0.913000000000     0.793500000000     0          
C13      C      0.392200000000     0.940100000000     0.817670000000     0          
H8       H      0.392500000000     0.903200000000     0.831900000000     0          
C14      C      0.500000000000     0.000000000000     0.750000000000     0          
O1       O      0.000800000000     0.092400000000     0.915570000000     0          
O3       O      0.003100000000     0.176200000000     0.952080000000     0          
O5       O      0.935500000000     0.063500000000     0.971690000000     0          
C1       C      0.999200000000     0.151600000000     0.922750000000     0          
C2       C      0.003700000000     0.202600000000     0.897490000000     0          
C3       C      0.992000000000     0.180400000000     0.866790000000     0          
H1       H      0.981700000000     0.134500000000     0.863000000000     0          
C4       C      0.995500000000     0.225200000000     0.841640000000     0          
H2       H      0.987500000000     0.210000000000     0.820700000000     0          
C5       C      0.010600000000     0.292200000000     0.847190000000     0          
C6       C      0.022300000000     0.314400000000     0.877880000000     0          
H3       H      0.032600000000     0.360300000000     0.881700000000     0          
C7       C      0.018800000000     0.269600000000     0.903030000000     0          
H4       H      0.026800000000     0.284800000000     0.924000000000     0          
C8       C      0.011700000000     0.342000000000     0.819690000000     0          
C9       C      0.957700000000     0.341600000000     0.798880000000     0          
H5       H      0.924800000000     0.307300000000     0.800300000000     0          
C10      C      0.951900000000     0.391500000000     0.776060000000     0          
H6       H      0.914900000000     0.391300000000     0.761800000000     0          
C11      C      0.000000000000     0.441700000000     0.774040000000     0          
C12      C      0.054000000000     0.442100000000     0.794840000000     0          
H7       H      0.087000000000     0.476400000000     0.793500000000     0          
C13      C      0.059900000000     0.392200000000     0.817670000000     0          
H8       H      0.096800000000     0.392500000000     0.831900000000     0          
O1       O      0.907600000000     0.000800000000     0.915570000000     0          
O3       O      0.823800000000     0.003100000000     0.952080000000     0          
O5       O      0.936500000000     0.935500000000     0.971690000000     0          
C1       C      0.848400000000     0.999200000000     0.922750000000     0          
C2       C      0.797400000000     0.003700000000     0.897490000000     0          
C3       C      0.819600000000     0.992000000000     0.866790000000     0          
H1       H      0.865500000000     0.981700000000     0.863000000000     0          
C4       C      0.774800000000     0.995500000000     0.841640000000     0          
H2       H      0.790000000000     0.987500000000     0.820700000000     0          
C5       C      0.707800000000     0.010600000000     0.847190000000     0          
C6       C      0.685600000000     0.022300000000     0.877880000000     0          
H3       H      0.639700000000     0.032600000000     0.881700000000     0          
C7       C      0.730400000000     0.018800000000     0.903030000000     0          
H4       H      0.715200000000     0.026800000000     0.924000000000     0          
C8       C      0.658000000000     0.011700000000     0.819690000000     0          
C9       C      0.658400000000     0.957700000000     0.798880000000     0          
H5       H      0.692700000000     0.924800000000     0.800300000000     0          
C10      C      0.608500000000     0.951900000000     0.776060000000     0          
H6       H      0.608700000000     0.914900000000     0.761800000000     0          
C11      C      0.558300000000     0.000000000000     0.774040000000     0          
C12      C      0.557900000000     0.054000000000     0.794840000000     0          
H7       H      0.523600000000     0.087000000000     0.793500000000     0          
C13      C      0.607800000000     0.059900000000     0.817670000000     0          
H8       H      0.607500000000     0.096800000000     0.831900000000     0          
O1       O      0.500800000000     0.592400000000     0.584430000000     0          
O3       O      0.503100000000     0.676200000000     0.547920000000     0          
O5       O      0.435500000000     0.563500000000     0.528310000000     0          
C1       C      0.499200000000     0.651600000000     0.577250000000     0          
C2       C      0.503700000000     0.702600000000     0.602510000000     0          
C3       C      0.492000000000     0.680400000000     0.633210000000     0          
H1       H      0.481700000000     0.634500000000     0.637000000000     0          
C4       C      0.495500000000     0.725200000000     0.658360000000     0          
H2       H      0.487500000000     0.710000000000     0.679300000000     0          
C5       C      0.510600000000     0.792200000000     0.652810000000     0          
C6       C      0.522300000000     0.814400000000     0.622120000000     0          
H3       H      0.532600000000     0.860300000000     0.618300000000     0          
C7       C      0.518800000000     0.769600000000     0.596970000000     0          
H4       H      0.526800000000     0.784800000000     0.576000000000     0          
C8       C      0.511700000000     0.842000000000     0.680310000000     0          
C9       C      0.457700000000     0.841600000000     0.701120000000     0          
H5       H      0.424800000000     0.807300000000     0.699700000000     0          
C10      C      0.451900000000     0.891500000000     0.723940000000     0          
H6       H      0.414900000000     0.891300000000     0.738200000000     0          
C11      C      0.500000000000     0.941700000000     0.725960000000     0          
C12      C      0.554000000000     0.942100000000     0.705160000000     0          
H7       H      0.587000000000     0.976400000000     0.706500000000     0          
C13      C      0.559900000000     0.892200000000     0.682330000000     0          
H8       H      0.596800000000     0.892500000000     0.668100000000     0          
Zr1      Zr     0.500000000000     0.500000000000     0.557810000000     0          
Zr2      Zr     0.500840000000     0.625130000000     0.500000000000     0          
O1       O      0.407600000000     0.500800000000     0.584430000000     0          
O3       O      0.323800000000     0.503100000000     0.547920000000     0          
O5       O      0.436500000000     0.435500000000     0.528310000000     0          
C1       C      0.348400000000     0.499200000000     0.577250000000     0          
C2       C      0.297400000000     0.503700000000     0.602510000000     0          
C3       C      0.319600000000     0.492000000000     0.633210000000     0          
H1       H      0.365500000000     0.481700000000     0.637000000000     0          
C4       C      0.274800000000     0.495500000000     0.658360000000     0          
H2       H      0.290000000000     0.487500000000     0.679300000000     0          
C5       C      0.207800000000     0.510600000000     0.652810000000     0          
C6       C      0.185600000000     0.522300000000     0.622120000000     0          
H3       H      0.139700000000     0.532600000000     0.618300000000     0          
C7       C      0.230400000000     0.518800000000     0.596970000000     0          
H4       H      0.215200000000     0.526800000000     0.576000000000     0          
C8       C      0.158000000000     0.511700000000     0.680310000000     0          
C9       C      0.158400000000     0.457700000000     0.701120000000     0          
H5       H      0.192700000000     0.424800000000     0.699700000000     0          
C10      C      0.108500000000     0.451900000000     0.723940000000     0          
H6       H      0.108700000000     0.414900000000     0.738200000000     0          
C11      C      0.058300000000     0.500000000000     0.725960000000     0          
C12      C      0.057900000000     0.554000000000     0.705160000000     0          
H7       H      0.023600000000     0.587000000000     0.706500000000     0          
C13      C      0.107800000000     0.559900000000     0.682330000000     0          
H8       H      0.107500000000     0.596800000000     0.668100000000     0          
Zr2      Zr     0.374870000000     0.500840000000     0.500000000000     0          
O1       O      0.499200000000     0.407600000000     0.584430000000     0          
O3       O      0.496900000000     0.323800000000     0.547920000000     0          
O5       O      0.564500000000     0.436500000000     0.528310000000     0          
C1       C      0.500800000000     0.348400000000     0.577250000000     0          
C2       C      0.496300000000     0.297400000000     0.602510000000     0          
C3       C      0.508000000000     0.319600000000     0.633210000000     0          
H1       H      0.518300000000     0.365500000000     0.637000000000     0          
C4       C      0.504500000000     0.274800000000     0.658360000000     0          
H2       H      0.512500000000     0.290000000000     0.679300000000     0          
C5       C      0.489400000000     0.207800000000     0.652810000000     0          
C6       C      0.477700000000     0.185600000000     0.622120000000     0          
H3       H      0.467400000000     0.139700000000     0.618300000000     0          
C7       C      0.481200000000     0.230400000000     0.596970000000     0          
H4       H      0.473200000000     0.215200000000     0.576000000000     0          
C8       C      0.488300000000     0.158000000000     0.680310000000     0          
C9       C      0.542300000000     0.158400000000     0.701120000000     0          
H5       H      0.575200000000     0.192700000000     0.699700000000     0          
C10      C      0.548100000000     0.108500000000     0.723940000000     0          
H6       H      0.585100000000     0.108700000000     0.738200000000     0          
C11      C      0.500000000000     0.058300000000     0.725960000000     0          
C12      C      0.446000000000     0.057900000000     0.705160000000     0          
H7       H      0.413000000000     0.023600000000     0.706500000000     0          
C13      C      0.440100000000     0.107800000000     0.682330000000     0          
H8       H      0.403200000000     0.107500000000     0.668100000000     0          
Zr2      Zr     0.499160000000     0.374870000000     0.500000000000     0          
O1       O      0.592400000000     0.499200000000     0.584430000000     0          
O3       O      0.676200000000     0.496900000000     0.547920000000     0          
O5       O      0.563500000000     0.564500000000     0.528310000000     0          
C1       C      0.651600000000     0.500800000000     0.577250000000     0          
C2       C      0.702600000000     0.496300000000     0.602510000000     0          
C3       C      0.680400000000     0.508000000000     0.633210000000     0          
H1       H      0.634500000000     0.518300000000     0.637000000000     0          
C4       C      0.725200000000     0.504500000000     0.658360000000     0          
H2       H      0.710000000000     0.512500000000     0.679300000000     0          
C5       C      0.792200000000     0.489400000000     0.652810000000     0          
C6       C      0.814400000000     0.477700000000     0.622120000000     0          
H3       H      0.860300000000     0.467400000000     0.618300000000     0          
C7       C      0.769600000000     0.481200000000     0.596970000000     0          
H4       H      0.784800000000     0.473200000000     0.576000000000     0          
C8       C      0.842000000000     0.488300000000     0.680310000000     0          
C9       C      0.841600000000     0.542300000000     0.701120000000     0          
H5       H      0.807300000000     0.575200000000     0.699700000000     0          
C10      C      0.891500000000     0.548100000000     0.723940000000     0          
H6       H      0.891300000000     0.585100000000     0.738200000000     0          
C11      C      0.941700000000     0.500000000000     0.725960000000     0          
C12      C      0.942100000000     0.446000000000     0.705160000000     0          
H7       H      0.976400000000     0.413000000000     0.706500000000     0          
C13      C      0.892200000000     0.440100000000     0.682330000000     0          
H8       H      0.892500000000     0.403200000000     0.668100000000     0          
Zr2      Zr     0.625130000000     0.499160000000     0.500000000000     0          
O1       O      0.499200000000     0.407600000000     0.415570000000     0          
O3       O      0.496900000000     0.323800000000     0.452080000000     0          
O5       O      0.564500000000     0.436500000000     0.471690000000     0          
C1       C      0.500800000000     0.348400000000     0.422750000000     0          
C2       C      0.496300000000     0.297400000000     0.397490000000     0          
C3       C      0.508000000000     0.319600000000     0.366790000000     0          
H1       H      0.518300000000     0.365500000000     0.363000000000     0          
C4       C      0.504500000000     0.274800000000     0.341640000000     0          
H2       H      0.512500000000     0.290000000000     0.320700000000     0          
C5       C      0.489400000000     0.207800000000     0.347190000000     0          
C6       C      0.477700000000     0.185600000000     0.377880000000     0          
H3       H      0.467400000000     0.139700000000     0.381700000000     0          
C7       C      0.481200000000     0.230400000000     0.403030000000     0          
H4       H      0.473200000000     0.215200000000     0.424000000000     0          
C8       C      0.488300000000     0.158000000000     0.319690000000     0          
C9       C      0.542300000000     0.158400000000     0.298880000000     0          
H5       H      0.575200000000     0.192700000000     0.300300000000     0          
C10      C      0.548100000000     0.108500000000     0.276060000000     0          
H6       H      0.585100000000     0.108700000000     0.261800000000     0          
C11      C      0.500000000000     0.058300000000     0.274040000000     0          
C12      C      0.446000000000     0.057900000000     0.294840000000     0          
H7       H      0.413000000000     0.023600000000     0.293500000000     0          
C13      C      0.440100000000     0.107800000000     0.317670000000     0          
H8       H      0.403200000000     0.107500000000     0.331900000000     0          
Zr1      Zr     0.500000000000     0.500000000000     0.442190000000     0          
O1       O      0.592400000000     0.499200000000     0.415570000000     0          
O3       O      0.676200000000     0.496900000000     0.452080000000     0          
O5       O      0.563500000000     0.564500000000     0.471690000000     0          
C1       C      0.651600000000     0.500800000000     0.422750000000     0          
C2       C      0.702600000000     0.496300000000     0.397490000000     0          
C3       C      0.680400000000     0.508000000000     0.366790000000     0          
H1       H      0.634500000000     0.518300000000     0.363000000000     0          
C4       C      0.725200000000     0.504500000000     0.341640000000     0          
H2       H      0.710000000000     0.512500000000     0.320700000000     0          
C5       C      0.792200000000     0.489400000000     0.347190000000     0          
C6       C      0.814400000000     0.477700000000     0.377880000000     0          
H3       H      0.860300000000     0.467400000000     0.381700000000     0          
C7       C      0.769600000000     0.481200000000     0.403030000000     0          
H4       H      0.784800000000     0.473200000000     0.424000000000     0          
C8       C      0.842000000000     0.488300000000     0.319690000000     0          
C9       C      0.841600000000     0.542300000000     0.298880000000     0          
H5       H      0.807300000000     0.575200000000     0.300300000000     0          
C10      C      0.891500000000     0.548100000000     0.276060000000     0          
H6       H      0.891300000000     0.585100000000     0.261800000000     0          
C11      C      0.941700000000     0.500000000000     0.274040000000     0          
C12      C      0.942100000000     0.446000000000     0.294840000000     0          
H7       H      0.976400000000     0.413000000000     0.293500000000     0          
C13      C      0.892200000000     0.440100000000     0.317670000000     0          
H8       H      0.892500000000     0.403200000000     0.331900000000     0          
O1       O      0.500800000000     0.592400000000     0.415570000000     0          
O3       O      0.503100000000     0.676200000000     0.452080000000     0          
O5       O      0.435500000000     0.563500000000     0.471690000000     0          
C1       C      0.499200000000     0.651600000000     0.422750000000     0          
C2       C      0.503700000000     0.702600000000     0.397490000000     0          
C3       C      0.492000000000     0.680400000000     0.366790000000     0          
H1       H      0.481700000000     0.634500000000     0.363000000000     0          
C4       C      0.495500000000     0.725200000000     0.341640000000     0          
H2       H      0.487500000000     0.710000000000     0.320700000000     0          
C5       C      0.510600000000     0.792200000000     0.347190000000     0          
C6       C      0.522300000000     0.814400000000     0.377880000000     0          
H3       H      0.532600000000     0.860300000000     0.381700000000     0          
C7       C      0.518800000000     0.769600000000     0.403030000000     0          
H4       H      0.526800000000     0.784800000000     0.424000000000     0          
C8       C      0.511700000000     0.842000000000     0.319690000000     0          
C9       C      0.457700000000     0.841600000000     0.298880000000     0          
H5       H      0.424800000000     0.807300000000     0.300300000000     0          
C10      C      0.451900000000     0.891500000000     0.276060000000     0          
H6       H      0.414900000000     0.891300000000     0.261800000000     0          
C11      C      0.500000000000     0.941700000000     0.274040000000     0          
C12      C      0.554000000000     0.942100000000     0.294840000000     0          
H7       H      0.587000000000     0.976400000000     0.293500000000     0          
C13      C      0.559900000000     0.892200000000     0.317670000000     0          
H8       H      0.596800000000     0.892500000000     0.331900000000     0          
O1       O      0.407600000000     0.500800000000     0.415570000000     0          
O3       O      0.323800000000     0.503100000000     0.452080000000     0          
O5       O      0.436500000000     0.435500000000     0.471690000000     0          
C1       C      0.348400000000     0.499200000000     0.422750000000     0          
C2       C      0.297400000000     0.503700000000     0.397490000000     0          
C3       C      0.319600000000     0.492000000000     0.366790000000     0          
H1       H      0.365500000000     0.481700000000     0.363000000000     0          
C4       C      0.274800000000     0.495500000000     0.341640000000     0          
H2       H      0.290000000000     0.487500000000     0.320700000000     0          
C5       C      0.207800000000     0.510600000000     0.347190000000     0          
C6       C      0.185600000000     0.522300000000     0.377880000000     0          
H3       H      0.139700000000     0.532600000000     0.381700000000     0          
C7       C      0.230400000000     0.518800000000     0.403030000000     0          
H4       H      0.215200000000     0.526800000000     0.424000000000     0          
C8       C      0.158000000000     0.511700000000     0.319690000000     0          
C9       C      0.158400000000     0.457700000000     0.298880000000     0          
H5       H      0.192700000000     0.424800000000     0.300300000000     0          
C10      C      0.108500000000     0.451900000000     0.276060000000     0          
H6       H      0.108700000000     0.414900000000     0.261800000000     0          
C11      C      0.058300000000     0.500000000000     0.274040000000     0          
C12      C      0.057900000000     0.554000000000     0.294840000000     0          
H7       H      0.023600000000     0.587000000000     0.293500000000     0          
C13      C      0.107800000000     0.559900000000     0.317670000000     0          
H8       H      0.107500000000     0.596800000000     0.331900000000     0          


