data_ERALOA

_audit_creation_method RASPA-1.0
_audit_creation_date 2020-11-23
_audit_author_name 'Rocio Bueno-Perez'

_cell_length_a    24.354
_cell_length_b    24.354
_cell_length_c    14.797
_cell_angle_alpha 90
_cell_angle_beta  90
_cell_angle_gamma 90
_cell_volume      8776.36

_symmetry_cell_setting          tetragonal
_symmetry_space_group_name_Hall 'P 1'
_symmetry_space_group_name_H-M  'P 1'
_symmetry_Int_Tables_number     1

_symmetry_equiv_pos_as_xyz 'x,y,z'

loop_
_atom_site_label
_atom_site_type_symbol
_atom_site_fract_x
_atom_site_fract_y
_atom_site_fract_z
_atom_site_charge
O5       O      0.148300000000     0.554000000000     0.588700000000     0          
C2       C      0.171900000000     0.631900000000     0.678200000000     0          
C8?      C      0.266900000000     0.669670000000     0.653900000000     0          
I2?      I      0.337600000000     0.673400000000     0.571900000000     0          
C9?      C      0.211740000000     0.691650000000     0.784000000000     0          
H4?      H      0.207200000000     0.710500000000     0.839800000000     0          
O7?      O      0.081900000000     0.609000000000     0.650100000000     0          
C12?     C      0.131200000000     0.595100000000     0.633200000000     0          
C14?     C      0.224900000000     0.636580000000     0.620900000000     0          
H6?      H      0.229500000000     0.617800000000     0.565200000000     0          
C15?     C      0.260310000000     0.697220000000     0.735500000000     0          
C16?     C      0.169800000000     0.658540000000     0.750900000000     0          
H7?      H      0.136600000000     0.654700000000     0.784100000000     0          
Zr1      Zr     0.100480000000     0.500000000000     0.500000000000     0          
Zr2      Zr     0.000000000000     0.572170000000     0.618850000000     0          
O1       O      0.000000000000     0.664800000000     0.608300000000     0          
O2       O      0.000000000000     0.565600000000     0.774400000000     0          
O3       O      0.048100000000     0.500000000000     0.618100000000     0          
O4       O      0.049200000000     0.571900000000     0.500000000000     0          
O5       O      0.446000000000     0.148300000000     0.088700000000     0          
C2       C      0.368100000000     0.171900000000     0.178200000000     0          
C8?      C      0.330330000000     0.266900000000     0.153900000000     0          
I2?      I      0.326600000000     0.337600000000     0.071900000000     0          
C9?      C      0.308350000000     0.211740000000     0.284000000000     0          
H4?      H      0.289500000000     0.207200000000     0.339800000000     0          
O7?      O      0.391000000000     0.081900000000     0.150100000000     0          
C12?     C      0.404900000000     0.131200000000     0.133200000000     0          
C14?     C      0.363420000000     0.224900000000     0.120900000000     0          
H6?      H      0.382200000000     0.229500000000     0.065200000000     0          
C15?     C      0.302780000000     0.260310000000     0.235500000000     0          
C16?     C      0.341460000000     0.169800000000     0.250900000000     0          
H7?      H      0.345300000000     0.136600000000     0.284100000000     0          
Zr1      Zr     0.500000000000     0.100480000000     0.000000000000     0          
Zr2      Zr     0.427830000000     0.000000000000     0.118850000000     0          
O1       O      0.335200000000     0.000000000000     0.108300000000     0          
O2       O      0.434400000000     0.000000000000     0.274400000000     0          
O3       O      0.500000000000     0.048100000000     0.118100000000     0          
O4       O      0.428100000000     0.049200000000     0.000000000000     0          
O5       O      0.851700000000     0.446000000000     0.588700000000     0          
C2       C      0.828100000000     0.368100000000     0.678200000000     0          
C8?      C      0.733100000000     0.330330000000     0.653900000000     0          
I2?      I      0.662400000000     0.326600000000     0.571900000000     0          
C9?      C      0.788260000000     0.308350000000     0.784000000000     0          
H4?      H      0.792800000000     0.289500000000     0.839800000000     0          
O7?      O      0.918100000000     0.391000000000     0.650100000000     0          
C12?     C      0.868800000000     0.404900000000     0.633200000000     0          
C14?     C      0.775100000000     0.363420000000     0.620900000000     0          
H6?      H      0.770500000000     0.382200000000     0.565200000000     0          
C15?     C      0.739690000000     0.302780000000     0.735500000000     0          
C16?     C      0.830200000000     0.341460000000     0.750900000000     0          
H7?      H      0.863400000000     0.345300000000     0.784100000000     0          
Zr1      Zr     0.899520000000     0.500000000000     0.500000000000     0          
Zr2      Zr     0.000000000000     0.427830000000     0.618850000000     0          
O1       O      0.000000000000     0.335200000000     0.608300000000     0          
O2       O      0.000000000000     0.434400000000     0.774400000000     0          
O3       O      0.951900000000     0.500000000000     0.618100000000     0          
O4       O      0.950800000000     0.428100000000     0.500000000000     0          
O5       O      0.554000000000     0.851700000000     0.088700000000     0          
C2       C      0.631900000000     0.828100000000     0.178200000000     0          
C8?      C      0.669670000000     0.733100000000     0.153900000000     0          
I2?      I      0.673400000000     0.662400000000     0.071900000000     0          
C9?      C      0.691650000000     0.788260000000     0.284000000000     0          
H4?      H      0.710500000000     0.792800000000     0.339800000000     0          
O7?      O      0.609000000000     0.918100000000     0.150100000000     0          
C12?     C      0.595100000000     0.868800000000     0.133200000000     0          
C14?     C      0.636580000000     0.775100000000     0.120900000000     0          
H6?      H      0.617800000000     0.770500000000     0.065200000000     0          
C15?     C      0.697220000000     0.739690000000     0.235500000000     0          
C16?     C      0.658540000000     0.830200000000     0.250900000000     0          
H7?      H      0.654700000000     0.863400000000     0.284100000000     0          
Zr1      Zr     0.500000000000     0.899520000000     0.000000000000     0          
Zr2      Zr     0.572170000000     0.000000000000     0.118850000000     0          
O1       O      0.664800000000     0.000000000000     0.108300000000     0          
O2       O      0.565600000000     0.000000000000     0.274400000000     0          
O3       O      0.500000000000     0.951900000000     0.118100000000     0          
O4       O      0.571900000000     0.950800000000     0.000000000000     0          
O5       O      0.148300000000     0.446000000000     0.411300000000     0          
C2       C      0.171900000000     0.368100000000     0.321800000000     0          
C8?      C      0.266900000000     0.330330000000     0.346100000000     0          
I2?      I      0.337600000000     0.326600000000     0.428100000000     0          
C9?      C      0.211740000000     0.308350000000     0.216000000000     0          
H4?      H      0.207200000000     0.289500000000     0.160200000000     0          
O7?      O      0.081900000000     0.391000000000     0.349900000000     0          
C12?     C      0.131200000000     0.404900000000     0.366800000000     0          
C14?     C      0.224900000000     0.363420000000     0.379100000000     0          
H6?      H      0.229500000000     0.382200000000     0.434800000000     0          
C15?     C      0.260310000000     0.302780000000     0.264500000000     0          
C16?     C      0.169800000000     0.341460000000     0.249100000000     0          
H7?      H      0.136600000000     0.345300000000     0.215900000000     0          
Zr2      Zr     0.000000000000     0.427830000000     0.381150000000     0          
O1       O      0.000000000000     0.335200000000     0.391700000000     0          
O2       O      0.000000000000     0.434400000000     0.225600000000     0          
O3       O      0.048100000000     0.500000000000     0.381900000000     0          
O4       O      0.049200000000     0.428100000000     0.500000000000     0          
O5       O      0.554000000000     0.148300000000     0.911300000000     0          
C2       C      0.631900000000     0.171900000000     0.821800000000     0          
C8?      C      0.669670000000     0.266900000000     0.846100000000     0          
I2?      I      0.673400000000     0.337600000000     0.928100000000     0          
C9?      C      0.691650000000     0.211740000000     0.716000000000     0          
H4?      H      0.710500000000     0.207200000000     0.660200000000     0          
O7?      O      0.609000000000     0.081900000000     0.849900000000     0          
C12?     C      0.595100000000     0.131200000000     0.866800000000     0          
C14?     C      0.636580000000     0.224900000000     0.879100000000     0          
H6?      H      0.617800000000     0.229500000000     0.934800000000     0          
C15?     C      0.697220000000     0.260310000000     0.764500000000     0          
C16?     C      0.658540000000     0.169800000000     0.749100000000     0          
H7?      H      0.654700000000     0.136600000000     0.715900000000     0          
Zr2      Zr     0.572170000000     0.000000000000     0.881150000000     0          
O1       O      0.664800000000     0.000000000000     0.891700000000     0          
O2       O      0.565600000000     0.000000000000     0.725600000000     0          
O3       O      0.500000000000     0.048100000000     0.881900000000     0          
O4       O      0.571900000000     0.049200000000     0.000000000000     0          
O5       O      0.851700000000     0.554000000000     0.411300000000     0          
C2       C      0.828100000000     0.631900000000     0.321800000000     0          
C8?      C      0.733100000000     0.669670000000     0.346100000000     0          
I2?      I      0.662400000000     0.673400000000     0.428100000000     0          
C9?      C      0.788260000000     0.691650000000     0.216000000000     0          
H4?      H      0.792800000000     0.710500000000     0.160200000000     0          
O7?      O      0.918100000000     0.609000000000     0.349900000000     0          
C12?     C      0.868800000000     0.595100000000     0.366800000000     0          
C14?     C      0.775100000000     0.636580000000     0.379100000000     0          
H6?      H      0.770500000000     0.617800000000     0.434800000000     0          
C15?     C      0.739690000000     0.697220000000     0.264500000000     0          
C16?     C      0.830200000000     0.658540000000     0.249100000000     0          
H7?      H      0.863400000000     0.654700000000     0.215900000000     0          
Zr2      Zr     0.000000000000     0.572170000000     0.381150000000     0          
O1       O      0.000000000000     0.664800000000     0.391700000000     0          
O2       O      0.000000000000     0.565600000000     0.225600000000     0          
O3       O      0.951900000000     0.500000000000     0.381900000000     0          
O4       O      0.950800000000     0.571900000000     0.500000000000     0          
O5       O      0.446000000000     0.851700000000     0.911300000000     0          
C2       C      0.368100000000     0.828100000000     0.821800000000     0          
C8?      C      0.330330000000     0.733100000000     0.846100000000     0          
I2?      I      0.326600000000     0.662400000000     0.928100000000     0          
C9?      C      0.308350000000     0.788260000000     0.716000000000     0          
H4?      H      0.289500000000     0.792800000000     0.660200000000     0          
O7?      O      0.391000000000     0.918100000000     0.849900000000     0          
C12?     C      0.404900000000     0.868800000000     0.866800000000     0          
C14?     C      0.363420000000     0.775100000000     0.879100000000     0          
H6?      H      0.382200000000     0.770500000000     0.934800000000     0          
C15?     C      0.302780000000     0.739690000000     0.764500000000     0          
C16?     C      0.341460000000     0.830200000000     0.749100000000     0          
H7?      H      0.345300000000     0.863400000000     0.715900000000     0          
Zr2      Zr     0.427830000000     0.000000000000     0.881150000000     0          
O1       O      0.335200000000     0.000000000000     0.891700000000     0          
O2       O      0.434400000000     0.000000000000     0.725600000000     0          
O3       O      0.500000000000     0.951900000000     0.881900000000     0          
O4       O      0.428100000000     0.950800000000     0.000000000000     0          
O5       O      0.851700000000     0.446000000000     0.411300000000     0          
C2       C      0.828100000000     0.368100000000     0.321800000000     0          
C8?      C      0.733100000000     0.330330000000     0.346100000000     0          
I2?      I      0.662400000000     0.326600000000     0.428100000000     0          
C9?      C      0.788260000000     0.308350000000     0.216000000000     0          
H4?      H      0.792800000000     0.289500000000     0.160200000000     0          
O7?      O      0.918100000000     0.391000000000     0.349900000000     0          
C12?     C      0.868800000000     0.404900000000     0.366800000000     0          
C14?     C      0.775100000000     0.363420000000     0.379100000000     0          
H6?      H      0.770500000000     0.382200000000     0.434800000000     0          
C15?     C      0.739690000000     0.302780000000     0.264500000000     0          
C16?     C      0.830200000000     0.341460000000     0.249100000000     0          
H7?      H      0.863400000000     0.345300000000     0.215900000000     0          
O5       O      0.554000000000     0.851700000000     0.911300000000     0          
C2       C      0.631900000000     0.828100000000     0.821800000000     0          
C8?      C      0.669670000000     0.733100000000     0.846100000000     0          
I2?      I      0.673400000000     0.662400000000     0.928100000000     0          
C9?      C      0.691650000000     0.788260000000     0.716000000000     0          
H4?      H      0.710500000000     0.792800000000     0.660200000000     0          
O7?      O      0.609000000000     0.918100000000     0.849900000000     0          
C12?     C      0.595100000000     0.868800000000     0.866800000000     0          
C14?     C      0.636580000000     0.775100000000     0.879100000000     0          
H6?      H      0.617800000000     0.770500000000     0.934800000000     0          
C15?     C      0.697220000000     0.739690000000     0.764500000000     0          
C16?     C      0.658540000000     0.830200000000     0.749100000000     0          
H7?      H      0.654700000000     0.863400000000     0.715900000000     0          
O5       O      0.148300000000     0.554000000000     0.411300000000     0          
C2       C      0.171900000000     0.631900000000     0.321800000000     0          
C8?      C      0.266900000000     0.669670000000     0.346100000000     0          
I2?      I      0.337600000000     0.673400000000     0.428100000000     0          
C9?      C      0.211740000000     0.691650000000     0.216000000000     0          
H4?      H      0.207200000000     0.710500000000     0.160200000000     0          
O7?      O      0.081900000000     0.609000000000     0.349900000000     0          
C12?     C      0.131200000000     0.595100000000     0.366800000000     0          
C14?     C      0.224900000000     0.636580000000     0.379100000000     0          
H6?      H      0.229500000000     0.617800000000     0.434800000000     0          
C15?     C      0.260310000000     0.697220000000     0.264500000000     0          
C16?     C      0.169800000000     0.658540000000     0.249100000000     0          
H7?      H      0.136600000000     0.654700000000     0.215900000000     0          
O5       O      0.446000000000     0.148300000000     0.911300000000     0          
C2       C      0.368100000000     0.171900000000     0.821800000000     0          
C8?      C      0.330330000000     0.266900000000     0.846100000000     0          
I2?      I      0.326600000000     0.337600000000     0.928100000000     0          
C9?      C      0.308350000000     0.211740000000     0.716000000000     0          
H4?      H      0.289500000000     0.207200000000     0.660200000000     0          
O7?      O      0.391000000000     0.081900000000     0.849900000000     0          
C12?     C      0.404900000000     0.131200000000     0.866800000000     0          
C14?     C      0.363420000000     0.224900000000     0.879100000000     0          
H6?      H      0.382200000000     0.229500000000     0.934800000000     0          
C15?     C      0.302780000000     0.260310000000     0.764500000000     0          
C16?     C      0.341460000000     0.169800000000     0.749100000000     0          
H7?      H      0.345300000000     0.136600000000     0.715900000000     0          
O5       O      0.851700000000     0.554000000000     0.588700000000     0          
C2       C      0.828100000000     0.631900000000     0.678200000000     0          
C8?      C      0.733100000000     0.669670000000     0.653900000000     0          
I2?      I      0.662400000000     0.673400000000     0.571900000000     0          
C9?      C      0.788260000000     0.691650000000     0.784000000000     0          
H4?      H      0.792800000000     0.710500000000     0.839800000000     0          
O7?      O      0.918100000000     0.609000000000     0.650100000000     0          
C12?     C      0.868800000000     0.595100000000     0.633200000000     0          
C14?     C      0.775100000000     0.636580000000     0.620900000000     0          
H6?      H      0.770500000000     0.617800000000     0.565200000000     0          
C15?     C      0.739690000000     0.697220000000     0.735500000000     0          
C16?     C      0.830200000000     0.658540000000     0.750900000000     0          
H7?      H      0.863400000000     0.654700000000     0.784100000000     0          
O5       O      0.446000000000     0.851700000000     0.088700000000     0          
C2       C      0.368100000000     0.828100000000     0.178200000000     0          
C8?      C      0.330330000000     0.733100000000     0.153900000000     0          
I2?      I      0.326600000000     0.662400000000     0.071900000000     0          
C9?      C      0.308350000000     0.788260000000     0.284000000000     0          
H4?      H      0.289500000000     0.792800000000     0.339800000000     0          
O7?      O      0.391000000000     0.918100000000     0.150100000000     0          
C12?     C      0.404900000000     0.868800000000     0.133200000000     0          
C14?     C      0.363420000000     0.775100000000     0.120900000000     0          
H6?      H      0.382200000000     0.770500000000     0.065200000000     0          
C15?     C      0.302780000000     0.739690000000     0.235500000000     0          
C16?     C      0.341460000000     0.830200000000     0.250900000000     0          
H7?      H      0.345300000000     0.863400000000     0.284100000000     0          
O5       O      0.148300000000     0.446000000000     0.588700000000     0          
C2       C      0.171900000000     0.368100000000     0.678200000000     0          
C8?      C      0.266900000000     0.330330000000     0.653900000000     0          
I2?      I      0.337600000000     0.326600000000     0.571900000000     0          
C9?      C      0.211740000000     0.308350000000     0.784000000000     0          
H4?      H      0.207200000000     0.289500000000     0.839800000000     0          
O7?      O      0.081900000000     0.391000000000     0.650100000000     0          
C12?     C      0.131200000000     0.404900000000     0.633200000000     0          
C14?     C      0.224900000000     0.363420000000     0.620900000000     0          
H6?      H      0.229500000000     0.382200000000     0.565200000000     0          
C15?     C      0.260310000000     0.302780000000     0.735500000000     0          
C16?     C      0.169800000000     0.341460000000     0.750900000000     0          
H7?      H      0.136600000000     0.345300000000     0.784100000000     0          
O5       O      0.554000000000     0.148300000000     0.088700000000     0          
C2       C      0.631900000000     0.171900000000     0.178200000000     0          
C8?      C      0.669670000000     0.266900000000     0.153900000000     0          
I2?      I      0.673400000000     0.337600000000     0.071900000000     0          
C9?      C      0.691650000000     0.211740000000     0.284000000000     0          
H4?      H      0.710500000000     0.207200000000     0.339800000000     0          
O7?      O      0.609000000000     0.081900000000     0.150100000000     0          
C12?     C      0.595100000000     0.131200000000     0.133200000000     0          
C14?     C      0.636580000000     0.224900000000     0.120900000000     0          
H6?      H      0.617800000000     0.229500000000     0.065200000000     0          
C15?     C      0.697220000000     0.260310000000     0.235500000000     0          
C16?     C      0.658540000000     0.169800000000     0.250900000000     0          
H7?      H      0.654700000000     0.136600000000     0.284100000000     0          


