data_ERALIU

_audit_creation_method RASPA-1.0
_audit_creation_date 2020-11-2
_audit_author_name 'Rocio Bueno-Perez'

_cell_length_a    24.25
_cell_length_b    24.25
_cell_length_c    15.232
_cell_angle_alpha 90
_cell_angle_beta  90
_cell_angle_gamma 90
_cell_volume      8957.37

_symmetry_cell_setting          tetragonal
_symmetry_space_group_name_Hall 'P 1'
_symmetry_space_group_name_H-M  'P 1'
_symmetry_Int_Tables_number     1

_symmetry_equiv_pos_as_xyz 'x,y,z'

loop_
_atom_site_label
_atom_site_type_symbol
_atom_site_fract_x
_atom_site_fract_y
_atom_site_fract_z
_atom_site_charge
O1       O      0.445570000000     0.147500000000     0.085900000000     0          
O3       O      0.397510000000     0.083980000000     0.161100000000     0          
C1       C      0.407740000000     0.132220000000     0.138100000000     0          
C2       C      0.371130000000     0.176360000000     0.174000000000     0          
C3       C      0.301530000000     0.260270000000     0.230600000000     0          
C4       C      0.383200000000     0.230950000000     0.153800000000     0          
H1       H      0.415300000000     0.239600000000     0.120600000000     0          
C5       C      0.324200000000     0.163730000000     0.222500000000     0          
H2       H      0.316000000000     0.126400000000     0.236300000000     0          
C6       C      0.348400000000     0.272900000000     0.182100000000     0          
C7       C      0.289400000000     0.205680000000     0.250800000000     0          
H3       H      0.257400000000     0.197000000000     0.283900000000     0          
O7       O      0.329700000000     0.365800000000     0.161600000000     0          
O8       O      0.414300000000     0.339500000000     0.147800000000     0          
N1       N      0.365200000000     0.330100000000     0.162500000000     0          
Zr1      Zr     0.500000000000     0.100370000000     0.000000000000     0          
Zr2      Zr     0.427010000000     0.000000000000     0.115920000000     0          
O5       O      0.429600000000     0.000000000000     0.259300000000     0          
O6       O      0.336060000000     0.000000000000     0.109300000000     0          
O2       O      0.500000000000     0.049160000000     0.117000000000     0          
O4       O      0.426300000000     0.048990000000     0.000000000000     0          
O1       O      0.852500000000     0.445570000000     0.585900000000     0          
O3       O      0.916020000000     0.397510000000     0.661100000000     0          
C1       C      0.867780000000     0.407740000000     0.638100000000     0          
C2       C      0.823640000000     0.371130000000     0.674000000000     0          
C3       C      0.739730000000     0.301530000000     0.730600000000     0          
C4       C      0.769050000000     0.383200000000     0.653800000000     0          
H1       H      0.760400000000     0.415300000000     0.620600000000     0          
C5       C      0.836270000000     0.324200000000     0.722500000000     0          
H2       H      0.873600000000     0.316000000000     0.736300000000     0          
C6       C      0.727100000000     0.348400000000     0.682100000000     0          
C7       C      0.794320000000     0.289400000000     0.750800000000     0          
H3       H      0.803000000000     0.257400000000     0.783900000000     0          
O7       O      0.634200000000     0.329700000000     0.661600000000     0          
O8       O      0.660500000000     0.414300000000     0.647800000000     0          
N1       N      0.669900000000     0.365200000000     0.662500000000     0          
Zr1      Zr     0.899630000000     0.500000000000     0.500000000000     0          
Zr2      Zr     0.000000000000     0.427010000000     0.615920000000     0          
O5       O      0.000000000000     0.429600000000     0.759300000000     0          
O6       O      0.000000000000     0.336060000000     0.609300000000     0          
O2       O      0.950840000000     0.500000000000     0.617000000000     0          
O4       O      0.951010000000     0.426300000000     0.500000000000     0          
O1       O      0.554430000000     0.852500000000     0.085900000000     0          
O3       O      0.602490000000     0.916020000000     0.161100000000     0          
C1       C      0.592260000000     0.867780000000     0.138100000000     0          
C2       C      0.628870000000     0.823640000000     0.174000000000     0          
C3       C      0.698470000000     0.739730000000     0.230600000000     0          
C4       C      0.616800000000     0.769050000000     0.153800000000     0          
H1       H      0.584700000000     0.760400000000     0.120600000000     0          
C5       C      0.675800000000     0.836270000000     0.222500000000     0          
H2       H      0.684000000000     0.873600000000     0.236300000000     0          
C6       C      0.651600000000     0.727100000000     0.182100000000     0          
C7       C      0.710600000000     0.794320000000     0.250800000000     0          
H3       H      0.742600000000     0.803000000000     0.283900000000     0          
O7       O      0.670300000000     0.634200000000     0.161600000000     0          
O8       O      0.585700000000     0.660500000000     0.147800000000     0          
N1       N      0.634800000000     0.669900000000     0.162500000000     0          
Zr1      Zr     0.500000000000     0.899630000000     0.000000000000     0          
Zr2      Zr     0.572990000000     0.000000000000     0.115920000000     0          
O5       O      0.570400000000     0.000000000000     0.259300000000     0          
O6       O      0.663940000000     0.000000000000     0.109300000000     0          
O2       O      0.500000000000     0.950840000000     0.117000000000     0          
O4       O      0.573700000000     0.951010000000     0.000000000000     0          
O1       O      0.147500000000     0.554430000000     0.585900000000     0          
O3       O      0.083980000000     0.602490000000     0.661100000000     0          
C1       C      0.132220000000     0.592260000000     0.638100000000     0          
C2       C      0.176360000000     0.628870000000     0.674000000000     0          
C3       C      0.260270000000     0.698470000000     0.730600000000     0          
C4       C      0.230950000000     0.616800000000     0.653800000000     0          
H1       H      0.239600000000     0.584700000000     0.620600000000     0          
C5       C      0.163730000000     0.675800000000     0.722500000000     0          
H2       H      0.126400000000     0.684000000000     0.736300000000     0          
C6       C      0.272900000000     0.651600000000     0.682100000000     0          
C7       C      0.205680000000     0.710600000000     0.750800000000     0          
H3       H      0.197000000000     0.742600000000     0.783900000000     0          
O7       O      0.365800000000     0.670300000000     0.661600000000     0          
O8       O      0.339500000000     0.585700000000     0.647800000000     0          
N1       N      0.330100000000     0.634800000000     0.662500000000     0          
Zr1      Zr     0.100370000000     0.500000000000     0.500000000000     0          
Zr2      Zr     0.000000000000     0.572990000000     0.615920000000     0          
O5       O      0.000000000000     0.570400000000     0.759300000000     0          
O6       O      0.000000000000     0.663940000000     0.609300000000     0          
O2       O      0.049160000000     0.500000000000     0.617000000000     0          
O4       O      0.048990000000     0.573700000000     0.500000000000     0          
O1       O      0.445570000000     0.852500000000     0.914100000000     0          
O3       O      0.397510000000     0.916020000000     0.838900000000     0          
C1       C      0.407740000000     0.867780000000     0.861900000000     0          
C2       C      0.371130000000     0.823640000000     0.826000000000     0          
C3       C      0.301530000000     0.739730000000     0.769400000000     0          
C4       C      0.383200000000     0.769050000000     0.846200000000     0          
H1       H      0.415300000000     0.760400000000     0.879400000000     0          
C5       C      0.324200000000     0.836270000000     0.777500000000     0          
H2       H      0.316000000000     0.873600000000     0.763700000000     0          
C6       C      0.348400000000     0.727100000000     0.817900000000     0          
C7       C      0.289400000000     0.794320000000     0.749200000000     0          
H3       H      0.257400000000     0.803000000000     0.716100000000     0          
O7       O      0.329700000000     0.634200000000     0.838400000000     0          
O8       O      0.414300000000     0.660500000000     0.852200000000     0          
N1       N      0.365200000000     0.669900000000     0.837500000000     0          
Zr2      Zr     0.427010000000     0.000000000000     0.884080000000     0          
O5       O      0.429600000000     0.000000000000     0.740700000000     0          
O6       O      0.336060000000     0.000000000000     0.890700000000     0          
O2       O      0.500000000000     0.950840000000     0.883000000000     0          
O4       O      0.426300000000     0.951010000000     0.000000000000     0          
O1       O      0.147500000000     0.445570000000     0.414100000000     0          
O3       O      0.083980000000     0.397510000000     0.338900000000     0          
C1       C      0.132220000000     0.407740000000     0.361900000000     0          
C2       C      0.176360000000     0.371130000000     0.326000000000     0          
C3       C      0.260270000000     0.301530000000     0.269400000000     0          
C4       C      0.230950000000     0.383200000000     0.346200000000     0          
H1       H      0.239600000000     0.415300000000     0.379400000000     0          
C5       C      0.163730000000     0.324200000000     0.277500000000     0          
H2       H      0.126400000000     0.316000000000     0.263700000000     0          
C6       C      0.272900000000     0.348400000000     0.317900000000     0          
C7       C      0.205680000000     0.289400000000     0.249200000000     0          
H3       H      0.197000000000     0.257400000000     0.216100000000     0          
O7       O      0.365800000000     0.329700000000     0.338400000000     0          
O8       O      0.339500000000     0.414300000000     0.352200000000     0          
N1       N      0.330100000000     0.365200000000     0.337500000000     0          
Zr2      Zr     0.000000000000     0.427010000000     0.384080000000     0          
O5       O      0.000000000000     0.429600000000     0.240700000000     0          
O6       O      0.000000000000     0.336060000000     0.390700000000     0          
O2       O      0.049160000000     0.500000000000     0.383000000000     0          
O4       O      0.048990000000     0.426300000000     0.500000000000     0          
O1       O      0.554430000000     0.147500000000     0.914100000000     0          
O3       O      0.602490000000     0.083980000000     0.838900000000     0          
C1       C      0.592260000000     0.132220000000     0.861900000000     0          
C2       C      0.628870000000     0.176360000000     0.826000000000     0          
C3       C      0.698470000000     0.260270000000     0.769400000000     0          
C4       C      0.616800000000     0.230950000000     0.846200000000     0          
H1       H      0.584700000000     0.239600000000     0.879400000000     0          
C5       C      0.675800000000     0.163730000000     0.777500000000     0          
H2       H      0.684000000000     0.126400000000     0.763700000000     0          
C6       C      0.651600000000     0.272900000000     0.817900000000     0          
C7       C      0.710600000000     0.205680000000     0.749200000000     0          
H3       H      0.742600000000     0.197000000000     0.716100000000     0          
O7       O      0.670300000000     0.365800000000     0.838400000000     0          
O8       O      0.585700000000     0.339500000000     0.852200000000     0          
N1       N      0.634800000000     0.330100000000     0.837500000000     0          
Zr2      Zr     0.572990000000     0.000000000000     0.884080000000     0          
O5       O      0.570400000000     0.000000000000     0.740700000000     0          
O6       O      0.663940000000     0.000000000000     0.890700000000     0          
O2       O      0.500000000000     0.049160000000     0.883000000000     0          
O4       O      0.573700000000     0.048990000000     0.000000000000     0          
O1       O      0.852500000000     0.554430000000     0.414100000000     0          
O3       O      0.916020000000     0.602490000000     0.338900000000     0          
C1       C      0.867780000000     0.592260000000     0.361900000000     0          
C2       C      0.823640000000     0.628870000000     0.326000000000     0          
C3       C      0.739730000000     0.698470000000     0.269400000000     0          
C4       C      0.769050000000     0.616800000000     0.346200000000     0          
H1       H      0.760400000000     0.584700000000     0.379400000000     0          
C5       C      0.836270000000     0.675800000000     0.277500000000     0          
H2       H      0.873600000000     0.684000000000     0.263700000000     0          
C6       C      0.727100000000     0.651600000000     0.317900000000     0          
C7       C      0.794320000000     0.710600000000     0.249200000000     0          
H3       H      0.803000000000     0.742600000000     0.216100000000     0          
O7       O      0.634200000000     0.670300000000     0.338400000000     0          
O8       O      0.660500000000     0.585700000000     0.352200000000     0          
N1       N      0.669900000000     0.634800000000     0.337500000000     0          
Zr2      Zr     0.000000000000     0.572990000000     0.384080000000     0          
O5       O      0.000000000000     0.570400000000     0.240700000000     0          
O6       O      0.000000000000     0.663940000000     0.390700000000     0          
O2       O      0.950840000000     0.500000000000     0.383000000000     0          
O4       O      0.951010000000     0.573700000000     0.500000000000     0          
O1       O      0.554430000000     0.852500000000     0.914100000000     0          
O3       O      0.602490000000     0.916020000000     0.838900000000     0          
C1       C      0.592260000000     0.867780000000     0.861900000000     0          
C2       C      0.628870000000     0.823640000000     0.826000000000     0          
C3       C      0.698470000000     0.739730000000     0.769400000000     0          
C4       C      0.616800000000     0.769050000000     0.846200000000     0          
H1       H      0.584700000000     0.760400000000     0.879400000000     0          
C5       C      0.675800000000     0.836270000000     0.777500000000     0          
H2       H      0.684000000000     0.873600000000     0.763700000000     0          
C6       C      0.651600000000     0.727100000000     0.817900000000     0          
C7       C      0.710600000000     0.794320000000     0.749200000000     0          
H3       H      0.742600000000     0.803000000000     0.716100000000     0          
O7       O      0.670300000000     0.634200000000     0.838400000000     0          
O8       O      0.585700000000     0.660500000000     0.852200000000     0          
N1       N      0.634800000000     0.669900000000     0.837500000000     0          
O1       O      0.147500000000     0.554430000000     0.414100000000     0          
O3       O      0.083980000000     0.602490000000     0.338900000000     0          
C1       C      0.132220000000     0.592260000000     0.361900000000     0          
C2       C      0.176360000000     0.628870000000     0.326000000000     0          
C3       C      0.260270000000     0.698470000000     0.269400000000     0          
C4       C      0.230950000000     0.616800000000     0.346200000000     0          
H1       H      0.239600000000     0.584700000000     0.379400000000     0          
C5       C      0.163730000000     0.675800000000     0.277500000000     0          
H2       H      0.126400000000     0.684000000000     0.263700000000     0          
C6       C      0.272900000000     0.651600000000     0.317900000000     0          
C7       C      0.205680000000     0.710600000000     0.249200000000     0          
H3       H      0.197000000000     0.742600000000     0.216100000000     0          
O7       O      0.365800000000     0.670300000000     0.338400000000     0          
O8       O      0.339500000000     0.585700000000     0.352200000000     0          
N1       N      0.330100000000     0.634800000000     0.337500000000     0          
O1       O      0.445570000000     0.147500000000     0.914100000000     0          
O3       O      0.397510000000     0.083980000000     0.838900000000     0          
C1       C      0.407740000000     0.132220000000     0.861900000000     0          
C2       C      0.371130000000     0.176360000000     0.826000000000     0          
C3       C      0.301530000000     0.260270000000     0.769400000000     0          
C4       C      0.383200000000     0.230950000000     0.846200000000     0          
H1       H      0.415300000000     0.239600000000     0.879400000000     0          
C5       C      0.324200000000     0.163730000000     0.777500000000     0          
H2       H      0.316000000000     0.126400000000     0.763700000000     0          
C6       C      0.348400000000     0.272900000000     0.817900000000     0          
C7       C      0.289400000000     0.205680000000     0.749200000000     0          
H3       H      0.257400000000     0.197000000000     0.716100000000     0          
O7       O      0.329700000000     0.365800000000     0.838400000000     0          
O8       O      0.414300000000     0.339500000000     0.852200000000     0          
N1       N      0.365200000000     0.330100000000     0.837500000000     0          
O1       O      0.852500000000     0.445570000000     0.414100000000     0          
O3       O      0.916020000000     0.397510000000     0.338900000000     0          
C1       C      0.867780000000     0.407740000000     0.361900000000     0          
C2       C      0.823640000000     0.371130000000     0.326000000000     0          
C3       C      0.739730000000     0.301530000000     0.269400000000     0          
C4       C      0.769050000000     0.383200000000     0.346200000000     0          
H1       H      0.760400000000     0.415300000000     0.379400000000     0          
C5       C      0.836270000000     0.324200000000     0.277500000000     0          
H2       H      0.873600000000     0.316000000000     0.263700000000     0          
C6       C      0.727100000000     0.348400000000     0.317900000000     0          
C7       C      0.794320000000     0.289400000000     0.249200000000     0          
H3       H      0.803000000000     0.257400000000     0.216100000000     0          
O7       O      0.634200000000     0.329700000000     0.338400000000     0          
O8       O      0.660500000000     0.414300000000     0.352200000000     0          
N1       N      0.669900000000     0.365200000000     0.337500000000     0          
O1       O      0.554430000000     0.147500000000     0.085900000000     0          
O3       O      0.602490000000     0.083980000000     0.161100000000     0          
C1       C      0.592260000000     0.132220000000     0.138100000000     0          
C2       C      0.628870000000     0.176360000000     0.174000000000     0          
C3       C      0.698470000000     0.260270000000     0.230600000000     0          
C4       C      0.616800000000     0.230950000000     0.153800000000     0          
H1       H      0.584700000000     0.239600000000     0.120600000000     0          
C5       C      0.675800000000     0.163730000000     0.222500000000     0          
H2       H      0.684000000000     0.126400000000     0.236300000000     0          
C6       C      0.651600000000     0.272900000000     0.182100000000     0          
C7       C      0.710600000000     0.205680000000     0.250800000000     0          
H3       H      0.742600000000     0.197000000000     0.283900000000     0          
O7       O      0.670300000000     0.365800000000     0.161600000000     0          
O8       O      0.585700000000     0.339500000000     0.147800000000     0          
N1       N      0.634800000000     0.330100000000     0.162500000000     0          
O1       O      0.852500000000     0.554430000000     0.585900000000     0          
O3       O      0.916020000000     0.602490000000     0.661100000000     0          
C1       C      0.867780000000     0.592260000000     0.638100000000     0          
C2       C      0.823640000000     0.628870000000     0.674000000000     0          
C3       C      0.739730000000     0.698470000000     0.730600000000     0          
C4       C      0.769050000000     0.616800000000     0.653800000000     0          
H1       H      0.760400000000     0.584700000000     0.620600000000     0          
C5       C      0.836270000000     0.675800000000     0.722500000000     0          
H2       H      0.873600000000     0.684000000000     0.736300000000     0          
C6       C      0.727100000000     0.651600000000     0.682100000000     0          
C7       C      0.794320000000     0.710600000000     0.750800000000     0          
H3       H      0.803000000000     0.742600000000     0.783900000000     0          
O7       O      0.634200000000     0.670300000000     0.661600000000     0          
O8       O      0.660500000000     0.585700000000     0.647800000000     0          
N1       N      0.669900000000     0.634800000000     0.662500000000     0          
O1       O      0.445570000000     0.852500000000     0.085900000000     0          
O3       O      0.397510000000     0.916020000000     0.161100000000     0          
C1       C      0.407740000000     0.867780000000     0.138100000000     0          
C2       C      0.371130000000     0.823640000000     0.174000000000     0          
C3       C      0.301530000000     0.739730000000     0.230600000000     0          
C4       C      0.383200000000     0.769050000000     0.153800000000     0          
H1       H      0.415300000000     0.760400000000     0.120600000000     0          
C5       C      0.324200000000     0.836270000000     0.222500000000     0          
H2       H      0.316000000000     0.873600000000     0.236300000000     0          
C6       C      0.348400000000     0.727100000000     0.182100000000     0          
C7       C      0.289400000000     0.794320000000     0.250800000000     0          
H3       H      0.257400000000     0.803000000000     0.283900000000     0          
O7       O      0.329700000000     0.634200000000     0.161600000000     0          
O8       O      0.414300000000     0.660500000000     0.147800000000     0          
N1       N      0.365200000000     0.669900000000     0.162500000000     0          
O1       O      0.147500000000     0.445570000000     0.585900000000     0          
O3       O      0.083980000000     0.397510000000     0.661100000000     0          
C1       C      0.132220000000     0.407740000000     0.638100000000     0          
C2       C      0.176360000000     0.371130000000     0.674000000000     0          
C3       C      0.260270000000     0.301530000000     0.730600000000     0          
C4       C      0.230950000000     0.383200000000     0.653800000000     0          
H1       H      0.239600000000     0.415300000000     0.620600000000     0          
C5       C      0.163730000000     0.324200000000     0.722500000000     0          
H2       H      0.126400000000     0.316000000000     0.736300000000     0          
C6       C      0.272900000000     0.348400000000     0.682100000000     0          
C7       C      0.205680000000     0.289400000000     0.750800000000     0          
H3       H      0.197000000000     0.257400000000     0.783900000000     0          
O7       O      0.365800000000     0.329700000000     0.661600000000     0          
O8       O      0.339500000000     0.414300000000     0.647800000000     0          
N1       N      0.330100000000     0.365200000000     0.662500000000     0          


