data_ERALEQ

_audit_creation_method RASPA-1.0
_audit_creation_date 2020-12-11
_audit_author_name 'Rocio Bueno-Perez'

_cell_length_a    24.263
_cell_length_b    24.263
_cell_length_c    14.615
_cell_angle_alpha 90
_cell_angle_beta  90
_cell_angle_gamma 90
_cell_volume      8603.75

_symmetry_cell_setting          triclinic
_symmetry_space_group_name_Hall 'P 1'
_symmetry_space_group_name_H-M  'P 1'
_symmetry_Int_Tables_number     1

_symmetry_equiv_pos_as_xyz 'x,y,z'

loop_
_atom_site_label
_atom_site_type_symbol
_atom_site_fract_x
_atom_site_fract_y
_atom_site_fract_z
_atom_site_charge
O1       O      0.081700000000     0.397500000000     0.163100000000     0          
O2       O      0.147700000000     0.447000000000     0.089300000000     0          
C3       C      0.130800000000     0.408000000000     0.138400000000     0          
C4       C      0.173700000000     0.368460000000     0.172500000000     0          
C5       C      0.253190000000     0.295200000000     0.235700000000     0          
C6       C      0.227200000000     0.371200000000     0.138800000000     0          
H7       H      0.236600000000     0.398000000000     0.094100000000     0          
C8       C      0.266900000000     0.334600000000     0.170300000000     0          
C9       C      0.159900000000     0.329200000000     0.237800000000     0          
H10      H      0.123400000000     0.327300000000     0.260900000000     0          
C11      C      0.199700000000     0.292500000000     0.269400000000     0          
H12      H      0.190300000000     0.265700000000     0.314100000000     0          
O13      O      0.323700000000     0.337300000000     0.134700000000     0          
C14      C      0.341900000000     0.390100000000     0.096000000000     0          
H15      H      0.380500000000     0.387200000000     0.077200000000     0          
H16      H      0.338200000000     0.419100000000     0.142500000000     0          
H17      H      0.319000000000     0.399300000000     0.043000000000     0          
O18      O      0.918300000000     0.602500000000     0.163100000000     0          
O19      O      0.852300000000     0.553000000000     0.089300000000     0          
C20      C      0.869200000000     0.592000000000     0.138400000000     0          
C21      C      0.826300000000     0.631540000000     0.172500000000     0          
C22      C      0.746810000000     0.704800000000     0.235700000000     0          
H23      H      0.694200000000     0.656300000000     0.162600000000     0          
O24      O      0.817600000000     0.758500000000     0.320400000000     0          
C25      C      0.876100000000     0.768300000000     0.338000000000     0          
H26      H      0.880100000000     0.800300000000     0.378900000000     0          
H27      H      0.895300000000     0.775500000000     0.280600000000     0          
H28      H      0.892200000000     0.735800000000     0.367800000000     0          
C29      C      0.772800000000     0.628800000000     0.138800000000     0          
H30      H      0.763400000000     0.602000000000     0.094100000000     0          
C31      C      0.733100000000     0.665400000000     0.170300000000     0          
C32      C      0.840100000000     0.670800000000     0.237800000000     0          
H33      H      0.876600000000     0.672700000000     0.260900000000     0          
C34      C      0.800300000000     0.707500000000     0.269400000000     0          
O35      O      0.602500000000     0.081700000000     0.663100000000     0          
O36      O      0.553000000000     0.147700000000     0.589300000000     0          
C37      C      0.592000000000     0.130800000000     0.638400000000     0          
C38      C      0.631540000000     0.173700000000     0.672500000000     0          
C39      C      0.704800000000     0.253190000000     0.735700000000     0          
C40      C      0.628800000000     0.227200000000     0.638800000000     0          
H41      H      0.602000000000     0.236600000000     0.594100000000     0          
C42      C      0.665400000000     0.266900000000     0.670300000000     0          
C43      C      0.670800000000     0.159900000000     0.737800000000     0          
H44      H      0.672700000000     0.123400000000     0.760900000000     0          
C45      C      0.707500000000     0.199700000000     0.769400000000     0          
H46      H      0.734300000000     0.190300000000     0.814100000000     0          
O47      O      0.662700000000     0.323700000000     0.634700000000     0          
C48      C      0.609900000000     0.341900000000     0.596000000000     0          
H49      H      0.612800000000     0.380500000000     0.577200000000     0          
H50      H      0.580900000000     0.338200000000     0.642500000000     0          
H51      H      0.600700000000     0.319000000000     0.543000000000     0          
O52      O      0.397500000000     0.918300000000     0.663100000000     0          
O53      O      0.447000000000     0.852300000000     0.589300000000     0          
C54      C      0.408000000000     0.869200000000     0.638400000000     0          
C55      C      0.368460000000     0.826300000000     0.672500000000     0          
C56      C      0.295200000000     0.746810000000     0.735700000000     0          
C57      C      0.375500000000     0.771400000000     0.647800000000     0          
H58      H      0.405300000000     0.761100000000     0.609400000000     0          
C59      C      0.338900000000     0.731670000000     0.679500000000     0          
C60      C      0.324800000000     0.841450000000     0.728700000000     0          
H61      H      0.320000000000     0.879000000000     0.745600000000     0          
C63      C      0.292500000000     0.800300000000     0.769400000000     0          
H64      H      0.265700000000     0.809700000000     0.814100000000     0          
O65      O      0.337300000000     0.676300000000     0.634700000000     0          
C66      C      0.390100000000     0.658100000000     0.596000000000     0          
H67      H      0.387200000000     0.619500000000     0.577200000000     0          
H68      H      0.419100000000     0.661800000000     0.642500000000     0          
H69      H      0.399300000000     0.681000000000     0.543000000000     0          
O70      O      0.918300000000     0.397500000000     0.836900000000     0          
O71      O      0.852300000000     0.447000000000     0.910700000000     0          
C72      C      0.869200000000     0.408000000000     0.861600000000     0          
C73      C      0.826300000000     0.368460000000     0.827500000000     0          
C74      C      0.746810000000     0.295200000000     0.764300000000     0          
H75      H      0.694200000000     0.343700000000     0.837400000000     0          
O76      O      0.817600000000     0.241500000000     0.679600000000     0          
C77      C      0.876100000000     0.231700000000     0.662000000000     0          
H78      H      0.880100000000     0.199700000000     0.621100000000     0          
H79      H      0.895300000000     0.224500000000     0.719400000000     0          
H80      H      0.892200000000     0.264200000000     0.632200000000     0          
C81      C      0.772800000000     0.371200000000     0.861200000000     0          
H82      H      0.763400000000     0.398000000000     0.905900000000     0          
C83      C      0.733100000000     0.334600000000     0.829700000000     0          
C84      C      0.840100000000     0.329200000000     0.762200000000     0          
H85      H      0.876600000000     0.327300000000     0.739100000000     0          
C86      C      0.800300000000     0.292500000000     0.730600000000     0          
O87      O      0.081700000000     0.602500000000     0.836900000000     0          
O88      O      0.147700000000     0.553000000000     0.910700000000     0          
C89      C      0.130800000000     0.592000000000     0.861600000000     0          
C90      C      0.173700000000     0.631540000000     0.827500000000     0          
C91      C      0.253190000000     0.704800000000     0.764300000000     0          
H92      H      0.305800000000     0.656300000000     0.837400000000     0          
O93      O      0.182400000000     0.758500000000     0.679600000000     0          
C94      C      0.123900000000     0.768300000000     0.662000000000     0          
H95      H      0.119900000000     0.800300000000     0.621100000000     0          
H96      H      0.104700000000     0.775500000000     0.719400000000     0          
H97      H      0.107800000000     0.735800000000     0.632200000000     0          
C98      C      0.227200000000     0.628800000000     0.861200000000     0          
H99      H      0.236600000000     0.602000000000     0.905900000000     0          
C100     C      0.266900000000     0.665400000000     0.829700000000     0          
C101     C      0.159900000000     0.670800000000     0.762200000000     0          
H102     H      0.123400000000     0.672700000000     0.739100000000     0          
C103     C      0.199700000000     0.707500000000     0.730600000000     0          
O104     O      0.397500000000     0.081700000000     0.336900000000     0          
O105     O      0.447000000000     0.147700000000     0.410700000000     0          
C106     C      0.408000000000     0.130800000000     0.361600000000     0          
C107     C      0.368460000000     0.173700000000     0.327500000000     0          
C108     C      0.295200000000     0.253190000000     0.264300000000     0          
C109     C      0.375500000000     0.228600000000     0.352200000000     0          
H110     H      0.405300000000     0.238900000000     0.390600000000     0          
C111     C      0.338900000000     0.268330000000     0.320500000000     0          
H112     H      0.343700000000     0.305800000000     0.337400000000     0          
C113     C      0.324800000000     0.158550000000     0.271300000000     0          
H114     H      0.320000000000     0.121000000000     0.254400000000     0          
C115     C      0.288200000000     0.198300000000     0.239700000000     0          
O116     O      0.241500000000     0.182400000000     0.179600000000     0          
C117     C      0.231700000000     0.123900000000     0.162000000000     0          
H118     H      0.199700000000     0.119900000000     0.121100000000     0          
H119     H      0.224500000000     0.104700000000     0.219400000000     0          
H120     H      0.264200000000     0.107800000000     0.132200000000     0          
O121     O      0.602500000000     0.918300000000     0.336900000000     0          
O122     O      0.553000000000     0.852300000000     0.410700000000     0          
C123     C      0.592000000000     0.869200000000     0.361600000000     0          
C124     C      0.631540000000     0.826300000000     0.327500000000     0          
C125     C      0.704800000000     0.746810000000     0.264300000000     0          
C126     C      0.628800000000     0.772800000000     0.361200000000     0          
H127     H      0.602000000000     0.763400000000     0.405900000000     0          
C128     C      0.665400000000     0.733100000000     0.329700000000     0          
C129     C      0.670800000000     0.840100000000     0.262200000000     0          
H130     H      0.672700000000     0.876600000000     0.239100000000     0          
C131     C      0.707500000000     0.800300000000     0.230600000000     0          
H132     H      0.734300000000     0.809700000000     0.185900000000     0          
O133     O      0.662700000000     0.676300000000     0.365300000000     0          
C134     C      0.609900000000     0.658100000000     0.404000000000     0          
H135     H      0.612800000000     0.619500000000     0.422800000000     0          
H136     H      0.580900000000     0.661800000000     0.357500000000     0          
H137     H      0.600700000000     0.681000000000     0.457000000000     0          
O138     O      0.918300000000     0.602500000000     0.836900000000     0          
O139     O      0.852300000000     0.553000000000     0.910700000000     0          
C140     C      0.869200000000     0.592000000000     0.861600000000     0          
C141     C      0.826300000000     0.631540000000     0.827500000000     0          
C142     C      0.746810000000     0.704800000000     0.764300000000     0          
C143     C      0.772800000000     0.628800000000     0.861200000000     0          
H144     H      0.763400000000     0.602000000000     0.905900000000     0          
C145     C      0.733100000000     0.665400000000     0.829700000000     0          
C146     C      0.840100000000     0.670800000000     0.762200000000     0          
H147     H      0.876600000000     0.672700000000     0.739100000000     0          
C148     C      0.800300000000     0.707500000000     0.730600000000     0          
H149     H      0.809700000000     0.734300000000     0.685900000000     0          
O150     O      0.676300000000     0.662700000000     0.865300000000     0          
C151     C      0.658100000000     0.609900000000     0.904000000000     0          
H152     H      0.619500000000     0.612800000000     0.922800000000     0          
H153     H      0.661800000000     0.580900000000     0.857500000000     0          
H154     H      0.681000000000     0.600700000000     0.957000000000     0          
O155     O      0.081700000000     0.397500000000     0.836900000000     0          
O156     O      0.147700000000     0.447000000000     0.910700000000     0          
C157     C      0.130800000000     0.408000000000     0.861600000000     0          
C158     C      0.173700000000     0.368460000000     0.827500000000     0          
C159     C      0.253190000000     0.295200000000     0.764300000000     0          
H160     H      0.305800000000     0.343700000000     0.837400000000     0          
O161     O      0.182400000000     0.241500000000     0.679600000000     0          
C162     C      0.123900000000     0.231700000000     0.662000000000     0          
H163     H      0.119900000000     0.199700000000     0.621100000000     0          
H164     H      0.104700000000     0.224500000000     0.719400000000     0          
H165     H      0.107800000000     0.264200000000     0.632200000000     0          
C166     C      0.227200000000     0.371200000000     0.861200000000     0          
H167     H      0.236600000000     0.398000000000     0.905900000000     0          
C168     C      0.266900000000     0.334600000000     0.829700000000     0          
C169     C      0.159900000000     0.329200000000     0.762200000000     0          
H170     H      0.123400000000     0.327300000000     0.739100000000     0          
C171     C      0.199700000000     0.292500000000     0.730600000000     0          
O172     O      0.397500000000     0.918300000000     0.336900000000     0          
O173     O      0.447000000000     0.852300000000     0.410700000000     0          
C174     C      0.408000000000     0.869200000000     0.361600000000     0          
C175     C      0.368460000000     0.826300000000     0.327500000000     0          
C176     C      0.295200000000     0.746810000000     0.264300000000     0          
C177     C      0.375500000000     0.771400000000     0.352200000000     0          
H178     H      0.405300000000     0.761100000000     0.390600000000     0          
C179     C      0.338900000000     0.731670000000     0.320500000000     0          
H180     H      0.343700000000     0.694200000000     0.337400000000     0          
C181     C      0.324800000000     0.841450000000     0.271300000000     0          
H182     H      0.320000000000     0.879000000000     0.254400000000     0          
C183     C      0.288200000000     0.801700000000     0.239700000000     0          
O184     O      0.241500000000     0.817600000000     0.179600000000     0          
C185     C      0.231700000000     0.876100000000     0.162000000000     0          
H186     H      0.199700000000     0.880100000000     0.121100000000     0          
H187     H      0.224500000000     0.895300000000     0.219400000000     0          
H188     H      0.264200000000     0.892200000000     0.132200000000     0          
O189     O      0.602500000000     0.081700000000     0.336900000000     0          
O190     O      0.553000000000     0.147700000000     0.410700000000     0          
C191     C      0.592000000000     0.130800000000     0.361600000000     0          
C192     C      0.631540000000     0.173700000000     0.327500000000     0          
C193     C      0.704800000000     0.253190000000     0.264300000000     0          
C194     C      0.624500000000     0.228600000000     0.352200000000     0          
H195     H      0.594700000000     0.238900000000     0.390600000000     0          
C196     C      0.661100000000     0.268330000000     0.320500000000     0          
H197     H      0.656300000000     0.305800000000     0.337400000000     0          
C198     C      0.675200000000     0.158550000000     0.271300000000     0          
H199     H      0.680000000000     0.121000000000     0.254400000000     0          
C200     C      0.711800000000     0.198300000000     0.239700000000     0          
O201     O      0.758500000000     0.182400000000     0.179600000000     0          
C202     C      0.768300000000     0.123900000000     0.162000000000     0          
H203     H      0.800300000000     0.119900000000     0.121100000000     0          
H204     H      0.775500000000     0.104700000000     0.219400000000     0          
H205     H      0.735800000000     0.107800000000     0.132200000000     0          
O206     O      0.081700000000     0.602500000000     0.163100000000     0          
O207     O      0.147700000000     0.553000000000     0.089300000000     0          
C208     C      0.130800000000     0.592000000000     0.138400000000     0          
C209     C      0.173700000000     0.631540000000     0.172500000000     0          
C210     C      0.253190000000     0.704800000000     0.235700000000     0          
C211     C      0.227200000000     0.628800000000     0.138800000000     0          
H212     H      0.236600000000     0.602000000000     0.094100000000     0          
C213     C      0.266900000000     0.665400000000     0.170300000000     0          
C214     C      0.159900000000     0.670800000000     0.237800000000     0          
H215     H      0.123400000000     0.672700000000     0.260900000000     0          
C216     C      0.199700000000     0.707500000000     0.269400000000     0          
H217     H      0.190300000000     0.734300000000     0.314100000000     0          
O218     O      0.323700000000     0.662700000000     0.134700000000     0          
C219     C      0.341900000000     0.609900000000     0.096000000000     0          
H220     H      0.380500000000     0.612800000000     0.077200000000     0          
H221     H      0.338200000000     0.580900000000     0.142500000000     0          
H222     H      0.319000000000     0.600700000000     0.043000000000     0          
O223     O      0.918300000000     0.397500000000     0.163100000000     0          
O224     O      0.852300000000     0.447000000000     0.089300000000     0          
C225     C      0.869200000000     0.408000000000     0.138400000000     0          
C226     C      0.826300000000     0.368460000000     0.172500000000     0          
C227     C      0.746810000000     0.295200000000     0.235700000000     0          
C228     C      0.772800000000     0.371200000000     0.138800000000     0          
H229     H      0.763400000000     0.398000000000     0.094100000000     0          
C230     C      0.733100000000     0.334600000000     0.170300000000     0          
C231     C      0.840100000000     0.329200000000     0.237800000000     0          
H232     H      0.876600000000     0.327300000000     0.260900000000     0          
C233     C      0.800300000000     0.292500000000     0.269400000000     0          
H234     H      0.809700000000     0.265700000000     0.314100000000     0          
O235     O      0.676300000000     0.337300000000     0.134700000000     0          
C236     C      0.658100000000     0.390100000000     0.096000000000     0          
H237     H      0.619500000000     0.387200000000     0.077200000000     0          
H238     H      0.661800000000     0.419100000000     0.142500000000     0          
H239     H      0.681000000000     0.399300000000     0.043000000000     0          
O240     O      0.602500000000     0.918300000000     0.663100000000     0          
O241     O      0.553000000000     0.852300000000     0.589300000000     0          
C242     C      0.592000000000     0.869200000000     0.638400000000     0          
C243     C      0.631540000000     0.826300000000     0.672500000000     0          
C244     C      0.704800000000     0.746810000000     0.735700000000     0          
C245     C      0.624500000000     0.771400000000     0.647800000000     0          
H246     H      0.594700000000     0.761100000000     0.609400000000     0          
C247     C      0.661100000000     0.731670000000     0.679500000000     0          
H248     H      0.656300000000     0.694200000000     0.662600000000     0          
C249     C      0.675200000000     0.841450000000     0.728700000000     0          
H250     H      0.680000000000     0.879000000000     0.745600000000     0          
C251     C      0.711800000000     0.801700000000     0.760300000000     0          
O252     O      0.758500000000     0.817600000000     0.820400000000     0          
C253     C      0.768300000000     0.876100000000     0.838000000000     0          
H254     H      0.800300000000     0.880100000000     0.878900000000     0          
H255     H      0.775500000000     0.895300000000     0.780600000000     0          
H256     H      0.735800000000     0.892200000000     0.867800000000     0          
O257     O      0.397500000000     0.081700000000     0.663100000000     0          
O258     O      0.447000000000     0.147700000000     0.589300000000     0          
C259     C      0.408000000000     0.130800000000     0.638400000000     0          
C260     C      0.368460000000     0.173700000000     0.672500000000     0          
C261     C      0.295200000000     0.253190000000     0.735700000000     0          
C262     C      0.371200000000     0.227200000000     0.638800000000     0          
H263     H      0.398000000000     0.236600000000     0.594100000000     0          
C264     C      0.334600000000     0.266900000000     0.670300000000     0          
C265     C      0.329200000000     0.159900000000     0.737800000000     0          
H266     H      0.327300000000     0.123400000000     0.760900000000     0          
C267     C      0.292500000000     0.199700000000     0.769400000000     0          
H268     H      0.265700000000     0.190300000000     0.814100000000     0          
O269     O      0.337300000000     0.323700000000     0.634700000000     0          
C270     C      0.390100000000     0.341900000000     0.596000000000     0          
H271     H      0.387200000000     0.380500000000     0.577200000000     0          
H272     H      0.419100000000     0.338200000000     0.642500000000     0          
H273     H      0.399300000000     0.319000000000     0.543000000000     0          
Zr274    Zr     0.100380000000     0.500000000000     0.000000000000     0          
Zr275    Zr     0.899620000000     0.500000000000     0.000000000000     0          
Zr276    Zr     0.500000000000     0.100380000000     0.500000000000     0          
Zr277    Zr     0.500000000000     0.899620000000     0.500000000000     0          
Zr278    Zr     0.000000000000     0.427750000000     0.119790000000     0          
O279     O      0.000000000000     0.338600000000     0.114800000000     0          
O280     O      0.000000000000     0.430700000000     0.269100000000     0          
Zr281    Zr     0.000000000000     0.572250000000     0.119790000000     0          
O282     O      0.000000000000     0.661400000000     0.114800000000     0          
O283     O      0.000000000000     0.569300000000     0.269100000000     0          
Zr284    Zr     0.572250000000     0.000000000000     0.619790000000     0          
O285     O      0.661400000000     0.000000000000     0.614800000000     0          
O286     O      0.569300000000     0.000000000000     0.769100000000     0          
Zr287    Zr     0.427750000000     0.000000000000     0.619790000000     0          
O288     O      0.338600000000     0.000000000000     0.614800000000     0          
O289     O      0.430700000000     0.000000000000     0.769100000000     0          
Zr290    Zr     0.000000000000     0.427750000000     0.880210000000     0          
O291     O      0.000000000000     0.338600000000     0.885200000000     0          
O292     O      0.000000000000     0.430700000000     0.730900000000     0          
Zr293    Zr     0.000000000000     0.572250000000     0.880210000000     0          
O294     O      0.000000000000     0.661400000000     0.885200000000     0          
O295     O      0.000000000000     0.569300000000     0.730900000000     0          
Zr296    Zr     0.427750000000     0.000000000000     0.380210000000     0          
O297     O      0.338600000000     0.000000000000     0.385200000000     0          
O298     O      0.430700000000     0.000000000000     0.230900000000     0          
Zr299    Zr     0.572250000000     0.000000000000     0.380210000000     0          
O300     O      0.661400000000     0.000000000000     0.385200000000     0          
O301     O      0.569300000000     0.000000000000     0.230900000000     0          
O302     O      0.050200000000     0.425700000000     0.000000000000     0          
O303     O      0.949800000000     0.574300000000     0.000000000000     0          
O304     O      0.574300000000     0.050200000000     0.500000000000     0          
O305     O      0.425700000000     0.949800000000     0.500000000000     0          
O306     O      0.949800000000     0.425700000000     0.000000000000     0          
O307     O      0.050200000000     0.574300000000     0.000000000000     0          
O308     O      0.425700000000     0.050200000000     0.500000000000     0          
O309     O      0.574300000000     0.949800000000     0.500000000000     0          
O310     O      0.050000000000     0.500000000000     0.127300000000     0          
O311     O      0.950000000000     0.500000000000     0.127300000000     0          
O312     O      0.500000000000     0.050000000000     0.627300000000     0          
O313     O      0.500000000000     0.950000000000     0.627300000000     0          
O314     O      0.950000000000     0.500000000000     0.872700000000     0          
O315     O      0.050000000000     0.500000000000     0.872700000000     0          
O316     O      0.500000000000     0.050000000000     0.372700000000     0          
O317     O      0.500000000000     0.950000000000     0.372700000000     0          


