data_ERAMAN

_audit_creation_method RASPA-1.0
_audit_creation_date 2020-11-2
_audit_author_name 'Rocio Bueno-Perez'

_cell_length_a    23.024
_cell_length_b    23.024
_cell_length_c    18.6484
_cell_angle_alpha 90
_cell_angle_beta  90
_cell_angle_gamma 90
_cell_volume      9885.6

_symmetry_cell_setting          tetragonal
_symmetry_space_group_name_Hall 'P 1'
_symmetry_space_group_name_H-M  'P 1'
_symmetry_Int_Tables_number     1

_symmetry_equiv_pos_as_xyz 'x,y,z'

loop_
_atom_site_label
_atom_site_type_symbol
_atom_site_fract_x
_atom_site_fract_y
_atom_site_fract_z
_atom_site_charge
O3       O      0.442500000000     0.157300000000     0.068900000000     0          
C1       C      0.404800000000     0.139300000000     0.113000000000     0          
O4       O      0.394200000000     0.087700000000     0.129400000000     0          
C2       C      0.372900000000     0.183900000000     0.155800000000     0          
C3       C      0.371600000000     0.241800000000     0.134900000000     0          
C4       C      0.340900000000     0.165680000000     0.214800000000     0          
H1       H      0.393500000000     0.254300000000     0.094600000000     0          
C5       C      0.338400000000     0.281580000000     0.173200000000     0          
C6       C      0.307600000000     0.205400000000     0.253100000000     0          
H2       H      0.341700000000     0.126100000000     0.229100000000     0          
C7       C      0.306300000000     0.263400000000     0.232200000000     0          
N1       N      0.341400000000     0.341100000000     0.144700000000     0          
N2       N      0.275900000000     0.179800000000     0.314600000000     0          
O9       O      0.300800000000     0.144500000000     0.352400000000     0          
O10      O      0.225100000000     0.196700000000     0.323000000000     0          
O11?     O      0.339000000000     0.349500000000     0.080200000000     0          
O12?     O      0.346800000000     0.380200000000     0.190600000000     0          
Zr1      Zr     0.500000000000     0.106700000000     0.000000000000     0          
O1       O      0.500000000000     0.052000000000     0.092000000000     0          
O2       O      0.422500000000     0.053000000000     0.000000000000     0          
Zr2      Zr     0.423870000000     0.000000000000     0.092480000000     0          
O5       O      0.428200000000     0.000000000000     0.207500000000     0          
O6       O      0.327300000000     0.000000000000     0.085300000000     0          
O3       O      0.842700000000     0.442500000000     0.568900000000     0          
C1       C      0.860700000000     0.404800000000     0.613000000000     0          
O4       O      0.912300000000     0.394200000000     0.629400000000     0          
C2       C      0.816100000000     0.372900000000     0.655800000000     0          
C3       C      0.758200000000     0.371600000000     0.634900000000     0          
C4       C      0.834320000000     0.340900000000     0.714800000000     0          
H1       H      0.745700000000     0.393500000000     0.594600000000     0          
C5       C      0.718420000000     0.338400000000     0.673200000000     0          
C6       C      0.794600000000     0.307600000000     0.753100000000     0          
H2       H      0.873900000000     0.341700000000     0.729100000000     0          
C7       C      0.736600000000     0.306300000000     0.732200000000     0          
N1       N      0.658900000000     0.341400000000     0.644700000000     0          
N2       N      0.820200000000     0.275900000000     0.814600000000     0          
O9       O      0.855500000000     0.300800000000     0.852400000000     0          
O10      O      0.803300000000     0.225100000000     0.823000000000     0          
O11?     O      0.650500000000     0.339000000000     0.580200000000     0          
O12?     O      0.619800000000     0.346800000000     0.690600000000     0          
Zr1      Zr     0.893300000000     0.500000000000     0.500000000000     0          
O1       O      0.948000000000     0.500000000000     0.592000000000     0          
O2       O      0.947000000000     0.422500000000     0.500000000000     0          
Zr2      Zr     0.000000000000     0.423870000000     0.592480000000     0          
O5       O      0.000000000000     0.428200000000     0.707500000000     0          
O6       O      0.000000000000     0.327300000000     0.585300000000     0          
O3       O      0.557500000000     0.842700000000     0.068900000000     0          
C1       C      0.595200000000     0.860700000000     0.113000000000     0          
O4       O      0.605800000000     0.912300000000     0.129400000000     0          
C2       C      0.627100000000     0.816100000000     0.155800000000     0          
C3       C      0.628400000000     0.758200000000     0.134900000000     0          
C4       C      0.659100000000     0.834320000000     0.214800000000     0          
H1       H      0.606500000000     0.745700000000     0.094600000000     0          
C5       C      0.661600000000     0.718420000000     0.173200000000     0          
C6       C      0.692400000000     0.794600000000     0.253100000000     0          
H2       H      0.658300000000     0.873900000000     0.229100000000     0          
C7       C      0.693700000000     0.736600000000     0.232200000000     0          
N1       N      0.658600000000     0.658900000000     0.144700000000     0          
N2       N      0.724100000000     0.820200000000     0.314600000000     0          
O9       O      0.699200000000     0.855500000000     0.352400000000     0          
O10      O      0.774900000000     0.803300000000     0.323000000000     0          
O11?     O      0.661000000000     0.650500000000     0.080200000000     0          
O12?     O      0.653200000000     0.619800000000     0.190600000000     0          
Zr1      Zr     0.500000000000     0.893300000000     0.000000000000     0          
O1       O      0.500000000000     0.948000000000     0.092000000000     0          
O2       O      0.577500000000     0.947000000000     0.000000000000     0          
Zr2      Zr     0.576130000000     0.000000000000     0.092480000000     0          
O5       O      0.571800000000     0.000000000000     0.207500000000     0          
O6       O      0.672700000000     0.000000000000     0.085300000000     0          
O3       O      0.157300000000     0.557500000000     0.568900000000     0          
C1       C      0.139300000000     0.595200000000     0.613000000000     0          
O4       O      0.087700000000     0.605800000000     0.629400000000     0          
C2       C      0.183900000000     0.627100000000     0.655800000000     0          
C3       C      0.241800000000     0.628400000000     0.634900000000     0          
C4       C      0.165680000000     0.659100000000     0.714800000000     0          
H1       H      0.254300000000     0.606500000000     0.594600000000     0          
C5       C      0.281580000000     0.661600000000     0.673200000000     0          
C6       C      0.205400000000     0.692400000000     0.753100000000     0          
H2       H      0.126100000000     0.658300000000     0.729100000000     0          
C7       C      0.263400000000     0.693700000000     0.732200000000     0          
N1       N      0.341100000000     0.658600000000     0.644700000000     0          
N2       N      0.179800000000     0.724100000000     0.814600000000     0          
O9       O      0.144500000000     0.699200000000     0.852400000000     0          
O10      O      0.196700000000     0.774900000000     0.823000000000     0          
O11?     O      0.349500000000     0.661000000000     0.580200000000     0          
O12?     O      0.380200000000     0.653200000000     0.690600000000     0          
Zr1      Zr     0.106700000000     0.500000000000     0.500000000000     0          
O1       O      0.052000000000     0.500000000000     0.592000000000     0          
O2       O      0.053000000000     0.577500000000     0.500000000000     0          
Zr2      Zr     0.000000000000     0.576130000000     0.592480000000     0          
O5       O      0.000000000000     0.571800000000     0.707500000000     0          
O6       O      0.000000000000     0.672700000000     0.585300000000     0          
O3       O      0.442500000000     0.842700000000     0.931100000000     0          
C1       C      0.404800000000     0.860700000000     0.887000000000     0          
O4       O      0.394200000000     0.912300000000     0.870600000000     0          
C2       C      0.372900000000     0.816100000000     0.844200000000     0          
C3       C      0.371600000000     0.758200000000     0.865100000000     0          
C4       C      0.340900000000     0.834320000000     0.785200000000     0          
H1       H      0.393500000000     0.745700000000     0.905400000000     0          
C5       C      0.338400000000     0.718420000000     0.826800000000     0          
C6       C      0.307600000000     0.794600000000     0.746900000000     0          
H2       H      0.341700000000     0.873900000000     0.770900000000     0          
C7       C      0.306300000000     0.736600000000     0.767800000000     0          
N1       N      0.341400000000     0.658900000000     0.855300000000     0          
N2       N      0.275900000000     0.820200000000     0.685400000000     0          
O9       O      0.300800000000     0.855500000000     0.647600000000     0          
O10      O      0.225100000000     0.803300000000     0.677000000000     0          
O11?     O      0.339000000000     0.650500000000     0.919800000000     0          
O12?     O      0.346800000000     0.619800000000     0.809400000000     0          
O1       O      0.500000000000     0.948000000000     0.908000000000     0          
O2       O      0.422500000000     0.947000000000     0.000000000000     0          
Zr2      Zr     0.423870000000     0.000000000000     0.907520000000     0          
O5       O      0.428200000000     0.000000000000     0.792500000000     0          
O6       O      0.327300000000     0.000000000000     0.914700000000     0          
O3       O      0.157300000000     0.442500000000     0.431100000000     0          
C1       C      0.139300000000     0.404800000000     0.387000000000     0          
O4       O      0.087700000000     0.394200000000     0.370600000000     0          
C2       C      0.183900000000     0.372900000000     0.344200000000     0          
C3       C      0.241800000000     0.371600000000     0.365100000000     0          
C4       C      0.165680000000     0.340900000000     0.285200000000     0          
H1       H      0.254300000000     0.393500000000     0.405400000000     0          
C5       C      0.281580000000     0.338400000000     0.326800000000     0          
C6       C      0.205400000000     0.307600000000     0.246900000000     0          
H2       H      0.126100000000     0.341700000000     0.270900000000     0          
C7       C      0.263400000000     0.306300000000     0.267800000000     0          
N1       N      0.341100000000     0.341400000000     0.355300000000     0          
N2       N      0.179800000000     0.275900000000     0.185400000000     0          
O9       O      0.144500000000     0.300800000000     0.147600000000     0          
O10      O      0.196700000000     0.225100000000     0.177000000000     0          
O11?     O      0.349500000000     0.339000000000     0.419800000000     0          
O12?     O      0.380200000000     0.346800000000     0.309400000000     0          
O1       O      0.052000000000     0.500000000000     0.408000000000     0          
O2       O      0.053000000000     0.422500000000     0.500000000000     0          
Zr2      Zr     0.000000000000     0.423870000000     0.407520000000     0          
O5       O      0.000000000000     0.428200000000     0.292500000000     0          
O6       O      0.000000000000     0.327300000000     0.414700000000     0          
O3       O      0.557500000000     0.157300000000     0.931100000000     0          
C1       C      0.595200000000     0.139300000000     0.887000000000     0          
O4       O      0.605800000000     0.087700000000     0.870600000000     0          
C2       C      0.627100000000     0.183900000000     0.844200000000     0          
C3       C      0.628400000000     0.241800000000     0.865100000000     0          
C4       C      0.659100000000     0.165680000000     0.785200000000     0          
H1       H      0.606500000000     0.254300000000     0.905400000000     0          
C5       C      0.661600000000     0.281580000000     0.826800000000     0          
C6       C      0.692400000000     0.205400000000     0.746900000000     0          
H2       H      0.658300000000     0.126100000000     0.770900000000     0          
C7       C      0.693700000000     0.263400000000     0.767800000000     0          
N1       N      0.658600000000     0.341100000000     0.855300000000     0          
N2       N      0.724100000000     0.179800000000     0.685400000000     0          
O9       O      0.699200000000     0.144500000000     0.647600000000     0          
O10      O      0.774900000000     0.196700000000     0.677000000000     0          
O11?     O      0.661000000000     0.349500000000     0.919800000000     0          
O12?     O      0.653200000000     0.380200000000     0.809400000000     0          
O1       O      0.500000000000     0.052000000000     0.908000000000     0          
O2       O      0.577500000000     0.053000000000     0.000000000000     0          
Zr2      Zr     0.576130000000     0.000000000000     0.907520000000     0          
O5       O      0.571800000000     0.000000000000     0.792500000000     0          
O6       O      0.672700000000     0.000000000000     0.914700000000     0          
O3       O      0.842700000000     0.557500000000     0.431100000000     0          
C1       C      0.860700000000     0.595200000000     0.387000000000     0          
O4       O      0.912300000000     0.605800000000     0.370600000000     0          
C2       C      0.816100000000     0.627100000000     0.344200000000     0          
C3       C      0.758200000000     0.628400000000     0.365100000000     0          
C4       C      0.834320000000     0.659100000000     0.285200000000     0          
H1       H      0.745700000000     0.606500000000     0.405400000000     0          
C5       C      0.718420000000     0.661600000000     0.326800000000     0          
C6       C      0.794600000000     0.692400000000     0.246900000000     0          
H2       H      0.873900000000     0.658300000000     0.270900000000     0          
C7       C      0.736600000000     0.693700000000     0.267800000000     0          
N1       N      0.658900000000     0.658600000000     0.355300000000     0          
N2       N      0.820200000000     0.724100000000     0.185400000000     0          
O9       O      0.855500000000     0.699200000000     0.147600000000     0          
O10      O      0.803300000000     0.774900000000     0.177000000000     0          
O11?     O      0.650500000000     0.661000000000     0.419800000000     0          
O12?     O      0.619800000000     0.653200000000     0.309400000000     0          
O1       O      0.948000000000     0.500000000000     0.408000000000     0          
O2       O      0.947000000000     0.577500000000     0.500000000000     0          
Zr2      Zr     0.000000000000     0.576130000000     0.407520000000     0          
O5       O      0.000000000000     0.571800000000     0.292500000000     0          
O6       O      0.000000000000     0.672700000000     0.414700000000     0          
O3       O      0.557500000000     0.842700000000     0.931100000000     0          
C1       C      0.595200000000     0.860700000000     0.887000000000     0          
O4       O      0.605800000000     0.912300000000     0.870600000000     0          
C2       C      0.627100000000     0.816100000000     0.844200000000     0          
C3       C      0.628400000000     0.758200000000     0.865100000000     0          
C4       C      0.659100000000     0.834320000000     0.785200000000     0          
H1       H      0.606500000000     0.745700000000     0.905400000000     0          
C5       C      0.661600000000     0.718420000000     0.826800000000     0          
C6       C      0.692400000000     0.794600000000     0.746900000000     0          
H2       H      0.658300000000     0.873900000000     0.770900000000     0          
C7       C      0.693700000000     0.736600000000     0.767800000000     0          
N1       N      0.658600000000     0.658900000000     0.855300000000     0          
N2       N      0.724100000000     0.820200000000     0.685400000000     0          
O9       O      0.699200000000     0.855500000000     0.647600000000     0          
O10      O      0.774900000000     0.803300000000     0.677000000000     0          
O11?     O      0.661000000000     0.650500000000     0.919800000000     0          
O12?     O      0.653200000000     0.619800000000     0.809400000000     0          
O3       O      0.157300000000     0.557500000000     0.431100000000     0          
C1       C      0.139300000000     0.595200000000     0.387000000000     0          
O4       O      0.087700000000     0.605800000000     0.370600000000     0          
C2       C      0.183900000000     0.627100000000     0.344200000000     0          
C3       C      0.241800000000     0.628400000000     0.365100000000     0          
C4       C      0.165680000000     0.659100000000     0.285200000000     0          
H1       H      0.254300000000     0.606500000000     0.405400000000     0          
C5       C      0.281580000000     0.661600000000     0.326800000000     0          
C6       C      0.205400000000     0.692400000000     0.246900000000     0          
H2       H      0.126100000000     0.658300000000     0.270900000000     0          
C7       C      0.263400000000     0.693700000000     0.267800000000     0          
N1       N      0.341100000000     0.658600000000     0.355300000000     0          
N2       N      0.179800000000     0.724100000000     0.185400000000     0          
O9       O      0.144500000000     0.699200000000     0.147600000000     0          
O10      O      0.196700000000     0.774900000000     0.177000000000     0          
O11?     O      0.349500000000     0.661000000000     0.419800000000     0          
O12?     O      0.380200000000     0.653200000000     0.309400000000     0          
O3       O      0.442500000000     0.157300000000     0.931100000000     0          
C1       C      0.404800000000     0.139300000000     0.887000000000     0          
O4       O      0.394200000000     0.087700000000     0.870600000000     0          
C2       C      0.372900000000     0.183900000000     0.844200000000     0          
C3       C      0.371600000000     0.241800000000     0.865100000000     0          
C4       C      0.340900000000     0.165680000000     0.785200000000     0          
H1       H      0.393500000000     0.254300000000     0.905400000000     0          
C5       C      0.338400000000     0.281580000000     0.826800000000     0          
C6       C      0.307600000000     0.205400000000     0.746900000000     0          
H2       H      0.341700000000     0.126100000000     0.770900000000     0          
C7       C      0.306300000000     0.263400000000     0.767800000000     0          
N1       N      0.341400000000     0.341100000000     0.855300000000     0          
N2       N      0.275900000000     0.179800000000     0.685400000000     0          
O9       O      0.300800000000     0.144500000000     0.647600000000     0          
O10      O      0.225100000000     0.196700000000     0.677000000000     0          
O11?     O      0.339000000000     0.349500000000     0.919800000000     0          
O12?     O      0.346800000000     0.380200000000     0.809400000000     0          
O3       O      0.842700000000     0.442500000000     0.431100000000     0          
C1       C      0.860700000000     0.404800000000     0.387000000000     0          
O4       O      0.912300000000     0.394200000000     0.370600000000     0          
C2       C      0.816100000000     0.372900000000     0.344200000000     0          
C3       C      0.758200000000     0.371600000000     0.365100000000     0          
C4       C      0.834320000000     0.340900000000     0.285200000000     0          
H1       H      0.745700000000     0.393500000000     0.405400000000     0          
C5       C      0.718420000000     0.338400000000     0.326800000000     0          
C6       C      0.794600000000     0.307600000000     0.246900000000     0          
H2       H      0.873900000000     0.341700000000     0.270900000000     0          
C7       C      0.736600000000     0.306300000000     0.267800000000     0          
N1       N      0.658900000000     0.341400000000     0.355300000000     0          
N2       N      0.820200000000     0.275900000000     0.185400000000     0          
O9       O      0.855500000000     0.300800000000     0.147600000000     0          
O10      O      0.803300000000     0.225100000000     0.177000000000     0          
O11?     O      0.650500000000     0.339000000000     0.419800000000     0          
O12?     O      0.619800000000     0.346800000000     0.309400000000     0          
O3       O      0.557500000000     0.157300000000     0.068900000000     0          
C1       C      0.595200000000     0.139300000000     0.113000000000     0          
O4       O      0.605800000000     0.087700000000     0.129400000000     0          
C2       C      0.627100000000     0.183900000000     0.155800000000     0          
C3       C      0.628400000000     0.241800000000     0.134900000000     0          
C4       C      0.659100000000     0.165680000000     0.214800000000     0          
H1       H      0.606500000000     0.254300000000     0.094600000000     0          
C5       C      0.661600000000     0.281580000000     0.173200000000     0          
C6       C      0.692400000000     0.205400000000     0.253100000000     0          
H2       H      0.658300000000     0.126100000000     0.229100000000     0          
C7       C      0.693700000000     0.263400000000     0.232200000000     0          
N1       N      0.658600000000     0.341100000000     0.144700000000     0          
N2       N      0.724100000000     0.179800000000     0.314600000000     0          
O9       O      0.699200000000     0.144500000000     0.352400000000     0          
O10      O      0.774900000000     0.196700000000     0.323000000000     0          
O11?     O      0.661000000000     0.349500000000     0.080200000000     0          
O12?     O      0.653200000000     0.380200000000     0.190600000000     0          
O3       O      0.842700000000     0.557500000000     0.568900000000     0          
C1       C      0.860700000000     0.595200000000     0.613000000000     0          
O4       O      0.912300000000     0.605800000000     0.629400000000     0          
C2       C      0.816100000000     0.627100000000     0.655800000000     0          
C3       C      0.758200000000     0.628400000000     0.634900000000     0          
C4       C      0.834320000000     0.659100000000     0.714800000000     0          
H1       H      0.745700000000     0.606500000000     0.594600000000     0          
C5       C      0.718420000000     0.661600000000     0.673200000000     0          
C6       C      0.794600000000     0.692400000000     0.753100000000     0          
H2       H      0.873900000000     0.658300000000     0.729100000000     0          
C7       C      0.736600000000     0.693700000000     0.732200000000     0          
N1       N      0.658900000000     0.658600000000     0.644700000000     0          
N2       N      0.820200000000     0.724100000000     0.814600000000     0          
O9       O      0.855500000000     0.699200000000     0.852400000000     0          
O10      O      0.803300000000     0.774900000000     0.823000000000     0          
O11?     O      0.650500000000     0.661000000000     0.580200000000     0          
O12?     O      0.619800000000     0.653200000000     0.690600000000     0          
O3       O      0.442500000000     0.842700000000     0.068900000000     0          
C1       C      0.404800000000     0.860700000000     0.113000000000     0          
O4       O      0.394200000000     0.912300000000     0.129400000000     0          
C2       C      0.372900000000     0.816100000000     0.155800000000     0          
C3       C      0.371600000000     0.758200000000     0.134900000000     0          
C4       C      0.340900000000     0.834320000000     0.214800000000     0          
H1       H      0.393500000000     0.745700000000     0.094600000000     0          
C5       C      0.338400000000     0.718420000000     0.173200000000     0          
C6       C      0.307600000000     0.794600000000     0.253100000000     0          
H2       H      0.341700000000     0.873900000000     0.229100000000     0          
C7       C      0.306300000000     0.736600000000     0.232200000000     0          
N1       N      0.341400000000     0.658900000000     0.144700000000     0          
N2       N      0.275900000000     0.820200000000     0.314600000000     0          
O9       O      0.300800000000     0.855500000000     0.352400000000     0          
O10      O      0.225100000000     0.803300000000     0.323000000000     0          
O11?     O      0.339000000000     0.650500000000     0.080200000000     0          
O12?     O      0.346800000000     0.619800000000     0.190600000000     0          
O3       O      0.157300000000     0.442500000000     0.568900000000     0          
C1       C      0.139300000000     0.404800000000     0.613000000000     0          
O4       O      0.087700000000     0.394200000000     0.629400000000     0          
C2       C      0.183900000000     0.372900000000     0.655800000000     0          
C3       C      0.241800000000     0.371600000000     0.634900000000     0          
C4       C      0.165680000000     0.340900000000     0.714800000000     0          
H1       H      0.254300000000     0.393500000000     0.594600000000     0          
C5       C      0.281580000000     0.338400000000     0.673200000000     0          
C6       C      0.205400000000     0.307600000000     0.753100000000     0          
H2       H      0.126100000000     0.341700000000     0.729100000000     0          
C7       C      0.263400000000     0.306300000000     0.732200000000     0          
N1       N      0.341100000000     0.341400000000     0.644700000000     0          
N2       N      0.179800000000     0.275900000000     0.814600000000     0          
O9       O      0.144500000000     0.300800000000     0.852400000000     0          
O10      O      0.196700000000     0.225100000000     0.823000000000     0          
O11?     O      0.349500000000     0.339000000000     0.580200000000     0          
O12?     O      0.380200000000     0.346800000000     0.690600000000     0          


