data_ERAMIV

_audit_creation_method RASPA-1.0
_audit_creation_date 2020-11-23
_audit_author_name 'Rocio Bueno-Perez'

_cell_length_a    23.0867
_cell_length_b    23.0867
_cell_length_c    18.8049
_cell_angle_alpha 90
_cell_angle_beta  90
_cell_angle_gamma 90
_cell_volume      10022.9

_symmetry_cell_setting          triclinic
_symmetry_space_group_name_Hall 'P 1'
_symmetry_space_group_name_H-M  'P 1'
_symmetry_Int_Tables_number     1

_symmetry_equiv_pos_as_xyz 'x,y,z'

loop_
_atom_site_label
_atom_site_type_symbol
_atom_site_fract_x
_atom_site_fract_y
_atom_site_fract_z
_atom_site_charge
O1       O      0.343000000000     0.059100000000     0.072300000000     0          
O2       O      0.418900000000     0.109600000000     0.137000000000     0          
C3       C      0.365000000000     0.099200000000     0.117800000000     0          
C4       C      0.320000000000     0.134600000000     0.156600000000     0          
C5       C      0.237700000000     0.199700000000     0.228000000000     0          
H6       H      0.132500000000     0.167900000000     0.179900000000     0          
C7       C      0.319000000000     0.134900000000     0.154200000000     0          
C8       C      0.337200000000     0.158600000000     0.218500000000     0          
H9       H      0.375400000000     0.151700000000     0.235500000000     0          
C10      C      0.298900000000     0.192700000000     0.257800000000     0          
H11      H      0.311000000000     0.209100000000     0.301700000000     0          
C12      C      0.225100000000     0.178900000000     0.168500000000     0          
C13      C      0.263200000000     0.144900000000     0.129000000000     0          
H14      H      0.251100000000     0.128600000000     0.085100000000     0          
C15      C      0.163000000000     0.190500000000     0.141400000000     0          
H16      H      0.154600000000     0.164800000000     0.101200000000     0          
H17      H      0.159700000000     0.230900000000     0.125900000000     0          
O18      O      0.657000000000     0.940900000000     0.072300000000     0          
O19      O      0.581100000000     0.890400000000     0.137000000000     0          
C20      C      0.635000000000     0.900800000000     0.117800000000     0          
C21      C      0.680000000000     0.865400000000     0.156600000000     0          
C22      C      0.762300000000     0.800300000000     0.228000000000     0          
H23      H      0.867500000000     0.832100000000     0.179900000000     0          
C24      C      0.681000000000     0.865100000000     0.154200000000     0          
C25      C      0.662800000000     0.841400000000     0.218500000000     0          
H26      H      0.624600000000     0.848300000000     0.235500000000     0          
C27      C      0.701100000000     0.807300000000     0.257800000000     0          
H28      H      0.689000000000     0.790900000000     0.301700000000     0          
C29      C      0.774900000000     0.821100000000     0.168500000000     0          
C30      C      0.736800000000     0.855100000000     0.129000000000     0          
H31      H      0.748900000000     0.871400000000     0.085100000000     0          
C32      C      0.837000000000     0.809500000000     0.141400000000     0          
H33      H      0.845400000000     0.835200000000     0.101200000000     0          
H34      H      0.840300000000     0.769100000000     0.125900000000     0          
O35      O      0.940900000000     0.343000000000     0.572300000000     0          
O36      O      0.890400000000     0.418900000000     0.637000000000     0          
C37      C      0.900800000000     0.365000000000     0.617800000000     0          
C38      C      0.865400000000     0.320000000000     0.656600000000     0          
C39      C      0.800300000000     0.237700000000     0.728000000000     0          
H40      H      0.832100000000     0.132500000000     0.679900000000     0          
C41      C      0.865100000000     0.319000000000     0.654200000000     0          
C42      C      0.841400000000     0.337200000000     0.718500000000     0          
H43      H      0.848300000000     0.375400000000     0.735500000000     0          
C44      C      0.807300000000     0.298900000000     0.757800000000     0          
H45      H      0.790900000000     0.311000000000     0.801700000000     0          
C46      C      0.821100000000     0.225100000000     0.668500000000     0          
C47      C      0.855100000000     0.263200000000     0.629000000000     0          
H48      H      0.871400000000     0.251100000000     0.585100000000     0          
C49      C      0.809500000000     0.163000000000     0.641400000000     0          
H50      H      0.835200000000     0.154600000000     0.601200000000     0          
H51      H      0.769100000000     0.159700000000     0.625900000000     0          
O52      O      0.059100000000     0.657000000000     0.572300000000     0          
O53      O      0.109600000000     0.581100000000     0.637000000000     0          
C54      C      0.099200000000     0.635000000000     0.617800000000     0          
C55      C      0.134600000000     0.680000000000     0.656600000000     0          
C56      C      0.199700000000     0.762300000000     0.728000000000     0          
H57      H      0.167900000000     0.867500000000     0.679900000000     0          
C58      C      0.134900000000     0.681000000000     0.654200000000     0          
C59      C      0.158600000000     0.662800000000     0.718500000000     0          
H60      H      0.151700000000     0.624600000000     0.735500000000     0          
C61      C      0.192700000000     0.701100000000     0.757800000000     0          
H62      H      0.209100000000     0.689000000000     0.801700000000     0          
C63      C      0.178900000000     0.774900000000     0.668500000000     0          
C64      C      0.144900000000     0.736800000000     0.629000000000     0          
H65      H      0.128600000000     0.748900000000     0.585100000000     0          
C66      C      0.190500000000     0.837000000000     0.641400000000     0          
H67      H      0.164800000000     0.845400000000     0.601200000000     0          
H68      H      0.230900000000     0.840300000000     0.625900000000     0          
O69      O      0.657000000000     0.059100000000     0.927700000000     0          
O70      O      0.581100000000     0.109600000000     0.863000000000     0          
C71      C      0.635000000000     0.099200000000     0.882200000000     0          
C72      C      0.680000000000     0.134600000000     0.843400000000     0          
C73      C      0.762300000000     0.199700000000     0.772000000000     0          
H74      H      0.867500000000     0.167900000000     0.820100000000     0          
H75      H      0.390600000000     0.406200000000     0.958300000000     0          
C76      C      0.681000000000     0.134900000000     0.845800000000     0          
C77      C      0.662800000000     0.158600000000     0.781500000000     0          
H78      H      0.624600000000     0.151700000000     0.764500000000     0          
C79      C      0.701100000000     0.192700000000     0.742200000000     0          
H80      H      0.689000000000     0.209100000000     0.698300000000     0          
C81      C      0.774900000000     0.178900000000     0.831500000000     0          
C82      C      0.736800000000     0.144900000000     0.871000000000     0          
H83      H      0.748900000000     0.128600000000     0.914900000000     0          
C84      C      0.837000000000     0.190500000000     0.858600000000     0          
H85      H      0.845400000000     0.164800000000     0.898800000000     0          
H86      H      0.840300000000     0.230900000000     0.874100000000     0          
O87      O      0.343000000000     0.940900000000     0.927700000000     0          
O88      O      0.418900000000     0.890400000000     0.863000000000     0          
C89      C      0.365000000000     0.900800000000     0.882200000000     0          
C90      C      0.320000000000     0.865400000000     0.843400000000     0          
C91      C      0.237700000000     0.800300000000     0.772000000000     0          
H92      H      0.132500000000     0.832100000000     0.820100000000     0          
H93      H      0.609400000000     0.593800000000     0.958300000000     0          
C94      C      0.319000000000     0.865100000000     0.845800000000     0          
C95      C      0.337200000000     0.841400000000     0.781500000000     0          
H96      H      0.375400000000     0.848300000000     0.764500000000     0          
C97      C      0.298900000000     0.807300000000     0.742200000000     0          
H98      H      0.311000000000     0.790900000000     0.698300000000     0          
C99      C      0.225100000000     0.821100000000     0.831500000000     0          
C100     C      0.263200000000     0.855100000000     0.871000000000     0          
H101     H      0.251100000000     0.871400000000     0.914900000000     0          
C102     C      0.163000000000     0.809500000000     0.858600000000     0          
H103     H      0.154600000000     0.835200000000     0.898800000000     0          
H104     H      0.159700000000     0.769100000000     0.874100000000     0          
O105     O      0.059100000000     0.343000000000     0.427700000000     0          
O106     O      0.109600000000     0.418900000000     0.363000000000     0          
C107     C      0.099200000000     0.365000000000     0.382200000000     0          
C108     C      0.134600000000     0.320000000000     0.343400000000     0          
C109     C      0.199700000000     0.237700000000     0.272000000000     0          
H110     H      0.167900000000     0.132500000000     0.320100000000     0          
H111     H      0.406200000000     0.609400000000     0.458300000000     0          
C112     C      0.134900000000     0.319000000000     0.345800000000     0          
C113     C      0.158600000000     0.337200000000     0.281500000000     0          
H114     H      0.151700000000     0.375400000000     0.264500000000     0          
C115     C      0.192700000000     0.298900000000     0.242200000000     0          
H116     H      0.209100000000     0.311000000000     0.198300000000     0          
C117     C      0.178900000000     0.225100000000     0.331500000000     0          
C118     C      0.144900000000     0.263200000000     0.371000000000     0          
H119     H      0.128600000000     0.251100000000     0.414900000000     0          
C120     C      0.190500000000     0.163000000000     0.358600000000     0          
H121     H      0.164800000000     0.154600000000     0.398800000000     0          
H122     H      0.230900000000     0.159700000000     0.374100000000     0          
O123     O      0.940900000000     0.657000000000     0.427700000000     0          
O124     O      0.890400000000     0.581100000000     0.363000000000     0          
C125     C      0.900800000000     0.635000000000     0.382200000000     0          
C126     C      0.865400000000     0.680000000000     0.343400000000     0          
C127     C      0.800300000000     0.762300000000     0.272000000000     0          
H128     H      0.832100000000     0.867500000000     0.320100000000     0          
H129     H      0.593800000000     0.390600000000     0.458300000000     0          
C130     C      0.865100000000     0.681000000000     0.345800000000     0          
C131     C      0.841400000000     0.662800000000     0.281500000000     0          
H132     H      0.848300000000     0.624600000000     0.264500000000     0          
C133     C      0.807300000000     0.701100000000     0.242200000000     0          
H134     H      0.790900000000     0.689000000000     0.198300000000     0          
C135     C      0.821100000000     0.774900000000     0.331500000000     0          
C136     C      0.855100000000     0.736800000000     0.371000000000     0          
H137     H      0.871400000000     0.748900000000     0.414900000000     0          
C138     C      0.809500000000     0.837000000000     0.358600000000     0          
H139     H      0.835200000000     0.845400000000     0.398800000000     0          
H140     H      0.769100000000     0.840300000000     0.374100000000     0          
O141     O      0.657000000000     0.940900000000     0.927700000000     0          
O142     O      0.581100000000     0.890400000000     0.863000000000     0          
C143     C      0.635000000000     0.900800000000     0.882200000000     0          
C144     C      0.680000000000     0.865400000000     0.843400000000     0          
C145     C      0.762300000000     0.800300000000     0.772000000000     0          
H146     H      0.867500000000     0.832100000000     0.820100000000     0          
C147     C      0.681000000000     0.865100000000     0.845800000000     0          
C148     C      0.662800000000     0.841400000000     0.781500000000     0          
H149     H      0.624600000000     0.848300000000     0.764500000000     0          
C150     C      0.701100000000     0.807300000000     0.742200000000     0          
H151     H      0.689000000000     0.790900000000     0.698300000000     0          
C152     C      0.774900000000     0.821100000000     0.831500000000     0          
C153     C      0.736800000000     0.855100000000     0.871000000000     0          
H154     H      0.748900000000     0.871400000000     0.914900000000     0          
C155     C      0.837000000000     0.809500000000     0.858600000000     0          
H156     H      0.845400000000     0.835200000000     0.898800000000     0          
H157     H      0.840300000000     0.769100000000     0.874100000000     0          
O158     O      0.343000000000     0.059100000000     0.927700000000     0          
O159     O      0.418900000000     0.109600000000     0.863000000000     0          
C160     C      0.365000000000     0.099200000000     0.882200000000     0          
C161     C      0.320000000000     0.134600000000     0.843400000000     0          
C162     C      0.237700000000     0.199700000000     0.772000000000     0          
H163     H      0.132500000000     0.167900000000     0.820100000000     0          
C164     C      0.319000000000     0.134900000000     0.845800000000     0          
C165     C      0.337200000000     0.158600000000     0.781500000000     0          
H166     H      0.375400000000     0.151700000000     0.764500000000     0          
C167     C      0.298900000000     0.192700000000     0.742200000000     0          
H168     H      0.311000000000     0.209100000000     0.698300000000     0          
C169     C      0.225100000000     0.178900000000     0.831500000000     0          
C170     C      0.263200000000     0.144900000000     0.871000000000     0          
H171     H      0.251100000000     0.128600000000     0.914900000000     0          
C172     C      0.163000000000     0.190500000000     0.858600000000     0          
H173     H      0.154600000000     0.164800000000     0.898800000000     0          
H174     H      0.159700000000     0.230900000000     0.874100000000     0          
O175     O      0.059100000000     0.657000000000     0.427700000000     0          
O176     O      0.109600000000     0.581100000000     0.363000000000     0          
C177     C      0.099200000000     0.635000000000     0.382200000000     0          
C178     C      0.134600000000     0.680000000000     0.343400000000     0          
C179     C      0.199700000000     0.762300000000     0.272000000000     0          
H180     H      0.167900000000     0.867500000000     0.320100000000     0          
C181     C      0.134900000000     0.681000000000     0.345800000000     0          
C182     C      0.158600000000     0.662800000000     0.281500000000     0          
H183     H      0.151700000000     0.624600000000     0.264500000000     0          
C184     C      0.192700000000     0.701100000000     0.242200000000     0          
H185     H      0.209100000000     0.689000000000     0.198300000000     0          
C186     C      0.178900000000     0.774900000000     0.331500000000     0          
C187     C      0.144900000000     0.736800000000     0.371000000000     0          
H188     H      0.128600000000     0.748900000000     0.414900000000     0          
C189     C      0.190500000000     0.837000000000     0.358600000000     0          
H190     H      0.164800000000     0.845400000000     0.398800000000     0          
H191     H      0.230900000000     0.840300000000     0.374100000000     0          
O192     O      0.940900000000     0.343000000000     0.427700000000     0          
O193     O      0.890400000000     0.418900000000     0.363000000000     0          
C194     C      0.900800000000     0.365000000000     0.382200000000     0          
C195     C      0.865400000000     0.320000000000     0.343400000000     0          
C196     C      0.800300000000     0.237700000000     0.272000000000     0          
H197     H      0.832100000000     0.132500000000     0.320100000000     0          
C198     C      0.865100000000     0.319000000000     0.345800000000     0          
C199     C      0.841400000000     0.337200000000     0.281500000000     0          
H200     H      0.848300000000     0.375400000000     0.264500000000     0          
C201     C      0.807300000000     0.298900000000     0.242200000000     0          
H202     H      0.790900000000     0.311000000000     0.198300000000     0          
C203     C      0.821100000000     0.225100000000     0.331500000000     0          
C204     C      0.855100000000     0.263200000000     0.371000000000     0          
H205     H      0.871400000000     0.251100000000     0.414900000000     0          
C206     C      0.809500000000     0.163000000000     0.358600000000     0          
H207     H      0.835200000000     0.154600000000     0.398800000000     0          
H208     H      0.769100000000     0.159700000000     0.374100000000     0          
O209     O      0.343000000000     0.940900000000     0.072300000000     0          
O210     O      0.418900000000     0.890400000000     0.137000000000     0          
C211     C      0.365000000000     0.900800000000     0.117800000000     0          
C212     C      0.320000000000     0.865400000000     0.156600000000     0          
C213     C      0.237700000000     0.800300000000     0.228000000000     0          
H214     H      0.132500000000     0.832100000000     0.179900000000     0          
H215     H      0.609400000000     0.593800000000     0.041700000000     0          
C216     C      0.319000000000     0.865100000000     0.154200000000     0          
C217     C      0.337200000000     0.841400000000     0.218500000000     0          
H218     H      0.375400000000     0.848300000000     0.235500000000     0          
C219     C      0.298900000000     0.807300000000     0.257800000000     0          
H220     H      0.311000000000     0.790900000000     0.301700000000     0          
C221     C      0.225100000000     0.821100000000     0.168500000000     0          
C222     C      0.263200000000     0.855100000000     0.129000000000     0          
H223     H      0.251100000000     0.871400000000     0.085100000000     0          
C224     C      0.163000000000     0.809500000000     0.141400000000     0          
H225     H      0.154600000000     0.835200000000     0.101200000000     0          
H226     H      0.159700000000     0.769100000000     0.125900000000     0          
O227     O      0.657000000000     0.059100000000     0.072300000000     0          
O228     O      0.581100000000     0.109600000000     0.137000000000     0          
C229     C      0.635000000000     0.099200000000     0.117800000000     0          
C230     C      0.680000000000     0.134600000000     0.156600000000     0          
C231     C      0.762300000000     0.199700000000     0.228000000000     0          
H232     H      0.867500000000     0.167900000000     0.179900000000     0          
H233     H      0.390600000000     0.406200000000     0.041700000000     0          
C234     C      0.681000000000     0.134900000000     0.154200000000     0          
C235     C      0.662800000000     0.158600000000     0.218500000000     0          
H236     H      0.624600000000     0.151700000000     0.235500000000     0          
C237     C      0.701100000000     0.192700000000     0.257800000000     0          
H238     H      0.689000000000     0.209100000000     0.301700000000     0          
C239     C      0.774900000000     0.178900000000     0.168500000000     0          
C240     C      0.736800000000     0.144900000000     0.129000000000     0          
H241     H      0.748900000000     0.128600000000     0.085100000000     0          
C242     C      0.837000000000     0.190500000000     0.141400000000     0          
H243     H      0.845400000000     0.164800000000     0.101200000000     0          
H244     H      0.840300000000     0.230900000000     0.125900000000     0          
O245     O      0.940900000000     0.657000000000     0.572300000000     0          
O246     O      0.890400000000     0.581100000000     0.637000000000     0          
C247     C      0.900800000000     0.635000000000     0.617800000000     0          
C248     C      0.865400000000     0.680000000000     0.656600000000     0          
C249     C      0.800300000000     0.762300000000     0.728000000000     0          
H250     H      0.832100000000     0.867500000000     0.679900000000     0          
H251     H      0.593800000000     0.390600000000     0.541700000000     0          
C252     C      0.865100000000     0.681000000000     0.654200000000     0          
C253     C      0.841400000000     0.662800000000     0.718500000000     0          
H254     H      0.848300000000     0.624600000000     0.735500000000     0          
C255     C      0.807300000000     0.701100000000     0.757800000000     0          
H256     H      0.790900000000     0.689000000000     0.801700000000     0          
C257     C      0.821100000000     0.774900000000     0.668500000000     0          
C258     C      0.855100000000     0.736800000000     0.629000000000     0          
H259     H      0.871400000000     0.748900000000     0.585100000000     0          
C260     C      0.809500000000     0.837000000000     0.641400000000     0          
H261     H      0.835200000000     0.845400000000     0.601200000000     0          
H262     H      0.769100000000     0.840300000000     0.625900000000     0          
O263     O      0.059100000000     0.343000000000     0.572300000000     0          
O264     O      0.109600000000     0.418900000000     0.637000000000     0          
C265     C      0.099200000000     0.365000000000     0.617800000000     0          
C266     C      0.134600000000     0.320000000000     0.656600000000     0          
C267     C      0.199700000000     0.237700000000     0.728000000000     0          
H268     H      0.167900000000     0.132500000000     0.679900000000     0          
H269     H      0.406200000000     0.609400000000     0.541700000000     0          
C270     C      0.134900000000     0.319000000000     0.654200000000     0          
C271     C      0.158600000000     0.337200000000     0.718500000000     0          
H272     H      0.151700000000     0.375400000000     0.735500000000     0          
C273     C      0.192700000000     0.298900000000     0.757800000000     0          
H274     H      0.209100000000     0.311000000000     0.801700000000     0          
C275     C      0.178900000000     0.225100000000     0.668500000000     0          
C276     C      0.144900000000     0.263200000000     0.629000000000     0          
H277     H      0.128600000000     0.251100000000     0.585100000000     0          
C278     C      0.190500000000     0.163000000000     0.641400000000     0          
H279     H      0.164800000000     0.154600000000     0.601200000000     0          
H280     H      0.230900000000     0.159700000000     0.625900000000     0          
Zr281    Zr     0.500000000000     0.075350000000     0.092770000000     0          
O282     O      0.500000000000     0.167200000000     0.061900000000     0          
O283     O      0.500000000000     0.048900000000     0.206000000000     0          
C284     C      0.500000000000     0.284100000000     0.064900000000     0          
H285     H      0.500000000000     0.263100000000     0.108400000000     0          
C286     C      0.500000000000     0.344500000000     0.065100000000     0          
H287     H      0.500000000000     0.365400000000     0.108600000000     0          
C288     C      0.500000000000     0.052100000000     0.350900000000     0          
H289     H      0.500000000000     0.088100000000     0.325300000000     0          
N290     N      0.500000000000     0.051300000000     0.424400000000     0          
Zr291    Zr     0.500000000000     0.924650000000     0.092770000000     0          
O292     O      0.500000000000     0.832800000000     0.061900000000     0          
O293     O      0.500000000000     0.951100000000     0.206000000000     0          
C294     C      0.500000000000     0.715900000000     0.064900000000     0          
H295     H      0.500000000000     0.736900000000     0.108400000000     0          
C296     C      0.500000000000     0.655500000000     0.065100000000     0          
H297     H      0.500000000000     0.634600000000     0.108600000000     0          
C298     C      0.500000000000     0.947900000000     0.350900000000     0          
H299     H      0.500000000000     0.911900000000     0.325300000000     0          
N300     N      0.500000000000     0.948700000000     0.424400000000     0          
Zr301    Zr     0.924650000000     0.500000000000     0.592770000000     0          
O302     O      0.832800000000     0.500000000000     0.561900000000     0          
O303     O      0.951100000000     0.500000000000     0.706000000000     0          
C304     C      0.715900000000     0.500000000000     0.564900000000     0          
H305     H      0.736900000000     0.500000000000     0.608400000000     0          
C306     C      0.655500000000     0.500000000000     0.565100000000     0          
H307     H      0.634600000000     0.500000000000     0.608600000000     0          
C308     C      0.947900000000     0.500000000000     0.850900000000     0          
H309     H      0.911900000000     0.500000000000     0.825300000000     0          
N310     N      0.948700000000     0.500000000000     0.924400000000     0          
Zr311    Zr     0.075350000000     0.500000000000     0.592770000000     0          
O312     O      0.167200000000     0.500000000000     0.561900000000     0          
O313     O      0.048900000000     0.500000000000     0.706000000000     0          
C314     C      0.284100000000     0.500000000000     0.564900000000     0          
H315     H      0.263100000000     0.500000000000     0.608400000000     0          
C316     C      0.344500000000     0.500000000000     0.565100000000     0          
H317     H      0.365400000000     0.500000000000     0.608600000000     0          
C318     C      0.052100000000     0.500000000000     0.850900000000     0          
H319     H      0.088100000000     0.500000000000     0.825300000000     0          
N320     N      0.051300000000     0.500000000000     0.924400000000     0          
Zr321    Zr     0.500000000000     0.075350000000     0.907230000000     0          
O322     O      0.500000000000     0.167200000000     0.938100000000     0          
O323     O      0.500000000000     0.048900000000     0.794000000000     0          
C324     C      0.500000000000     0.284100000000     0.935100000000     0          
H325     H      0.500000000000     0.263100000000     0.891600000000     0          
C326     C      0.500000000000     0.344500000000     0.934900000000     0          
H327     H      0.500000000000     0.365400000000     0.891400000000     0          
C328     C      0.500000000000     0.052100000000     0.649100000000     0          
H329     H      0.500000000000     0.088100000000     0.674700000000     0          
N330     N      0.500000000000     0.051300000000     0.575600000000     0          
Zr331    Zr     0.500000000000     0.924650000000     0.907230000000     0          
O332     O      0.500000000000     0.832800000000     0.938100000000     0          
O333     O      0.500000000000     0.951100000000     0.794000000000     0          
C334     C      0.500000000000     0.715900000000     0.935100000000     0          
H335     H      0.500000000000     0.736900000000     0.891600000000     0          
C336     C      0.500000000000     0.655500000000     0.934900000000     0          
H337     H      0.500000000000     0.634600000000     0.891400000000     0          
C338     C      0.500000000000     0.947900000000     0.649100000000     0          
H339     H      0.500000000000     0.911900000000     0.674700000000     0          
N340     N      0.500000000000     0.948700000000     0.575600000000     0          
Zr341    Zr     0.075350000000     0.500000000000     0.407230000000     0          
O342     O      0.167200000000     0.500000000000     0.438100000000     0          
O343     O      0.048900000000     0.500000000000     0.294000000000     0          
C344     C      0.284100000000     0.500000000000     0.435100000000     0          
H345     H      0.263100000000     0.500000000000     0.391600000000     0          
C346     C      0.344500000000     0.500000000000     0.434900000000     0          
H347     H      0.365400000000     0.500000000000     0.391400000000     0          
C348     C      0.052100000000     0.500000000000     0.149100000000     0          
H349     H      0.088100000000     0.500000000000     0.174700000000     0          
N350     N      0.051300000000     0.500000000000     0.075600000000     0          
Zr351    Zr     0.924650000000     0.500000000000     0.407230000000     0          
O352     O      0.832800000000     0.500000000000     0.438100000000     0          
O353     O      0.951100000000     0.500000000000     0.294000000000     0          
C354     C      0.715900000000     0.500000000000     0.435100000000     0          
H355     H      0.736900000000     0.500000000000     0.391600000000     0          
C356     C      0.655500000000     0.500000000000     0.434900000000     0          
H357     H      0.634600000000     0.500000000000     0.391400000000     0          
C358     C      0.947900000000     0.500000000000     0.149100000000     0          
H359     H      0.911900000000     0.500000000000     0.174700000000     0          
N360     N      0.948700000000     0.500000000000     0.075600000000     0          
Zr361    Zr     0.392110000000     0.000000000000     0.000000000000     0          
Zr362    Zr     0.607890000000     0.000000000000     0.000000000000     0          
Zr363    Zr     0.000000000000     0.392110000000     0.500000000000     0          
Zr364    Zr     0.000000000000     0.607890000000     0.500000000000     0          
O365     O      0.446400000000     0.000000000000     0.091000000000     0          
O366     O      0.553600000000     0.000000000000     0.091000000000     0          
O367     O      0.000000000000     0.446400000000     0.591000000000     0          
O368     O      0.000000000000     0.553600000000     0.591000000000     0          
O369     O      0.553600000000     0.000000000000     0.909000000000     0          
O370     O      0.446400000000     0.000000000000     0.909000000000     0          
O371     O      0.000000000000     0.446400000000     0.409000000000     0          
O372     O      0.000000000000     0.553600000000     0.409000000000     0          
O373     O      0.446200000000     0.074500000000     0.000000000000     0          
C374     C      0.446200000000     0.466600000000     0.000000000000     0          
H375     H      0.592600000000     0.452000000000     0.000000000000     0          
O376     O      0.553800000000     0.925500000000     0.000000000000     0          
C377     C      0.553800000000     0.533400000000     0.000000000000     0          
H378     H      0.407400000000     0.548000000000     0.000000000000     0          
O379     O      0.925500000000     0.446200000000     0.500000000000     0          
C380     C      0.533400000000     0.446200000000     0.500000000000     0          
H381     H      0.548000000000     0.592600000000     0.500000000000     0          
O382     O      0.074500000000     0.553800000000     0.500000000000     0          
C383     C      0.466600000000     0.553800000000     0.500000000000     0          
H384     H      0.452000000000     0.407400000000     0.500000000000     0          
O385     O      0.553800000000     0.074500000000     0.000000000000     0          
C386     C      0.391900000000     0.430200000000     0.000000000000     0          
H387     H      0.359300000000     0.456000000000     0.000000000000     0          
C388     C      0.553800000000     0.466600000000     0.000000000000     0          
O389     O      0.446200000000     0.925500000000     0.000000000000     0          
C390     C      0.608100000000     0.569800000000     0.000000000000     0          
H391     H      0.640700000000     0.544000000000     0.000000000000     0          
C392     C      0.446200000000     0.533400000000     0.000000000000     0          
O393     O      0.074500000000     0.446200000000     0.500000000000     0          
C394     C      0.430200000000     0.608100000000     0.500000000000     0          
H395     H      0.456000000000     0.640700000000     0.500000000000     0          
C396     C      0.466600000000     0.446200000000     0.500000000000     0          
O397     O      0.925500000000     0.553800000000     0.500000000000     0          
C398     C      0.569800000000     0.391900000000     0.500000000000     0          
H399     H      0.544000000000     0.359300000000     0.500000000000     0          
C400     C      0.533400000000     0.553800000000     0.500000000000     0          
C401     C      0.500000000000     0.191000000000     0.000000000000     0          
C402     C      0.500000000000     0.254800000000     0.000000000000     0          
C403     C      0.500000000000     0.373700000000     0.000000000000     0          
C404     C      0.500000000000     0.439200000000     0.000000000000     0          
C405     C      0.500000000000     0.809000000000     0.000000000000     0          
C406     C      0.500000000000     0.745200000000     0.000000000000     0          
C407     C      0.500000000000     0.626300000000     0.000000000000     0          
C408     C      0.500000000000     0.560800000000     0.000000000000     0          
C409     C      0.809000000000     0.500000000000     0.500000000000     0          
C410     C      0.745200000000     0.500000000000     0.500000000000     0          
C411     C      0.626300000000     0.500000000000     0.500000000000     0          
C412     C      0.560800000000     0.500000000000     0.500000000000     0          
C413     C      0.191000000000     0.500000000000     0.500000000000     0          
C414     C      0.254800000000     0.500000000000     0.500000000000     0          
C415     C      0.373700000000     0.500000000000     0.500000000000     0          
C416     C      0.439200000000     0.500000000000     0.500000000000     0          
C417     C      0.500000000000     0.000000000000     0.235800000000     0          
C418     C      0.500000000000     0.000000000000     0.313800000000     0          
C419     C      0.500000000000     0.000000000000     0.460500000000     0          
C420     C      0.000000000000     0.500000000000     0.735800000000     0          
C421     C      0.000000000000     0.500000000000     0.813800000000     0          
C422     C      0.000000000000     0.500000000000     0.960500000000     0          
C423     C      0.500000000000     0.000000000000     0.764200000000     0          
C424     C      0.500000000000     0.000000000000     0.686200000000     0          
C425     C      0.500000000000     0.000000000000     0.539500000000     0          
C426     C      0.000000000000     0.500000000000     0.264200000000     0          
C427     C      0.000000000000     0.500000000000     0.186200000000     0          
C428     C      0.000000000000     0.500000000000     0.039500000000     0          
Cu429    Cu     0.500000000000     0.103600000000     0.500000000000     0          
Cu430    Cu     0.500000000000     0.896400000000     0.500000000000     0          
Cu431    Cu     0.896400000000     0.500000000000     0.000000000000     0          
Cu432    Cu     0.103600000000     0.500000000000     0.000000000000     0          
I433     I      0.502740000000     0.229860000000     0.500000000000     0          
I434     I      0.770140000000     0.502740000000     0.000000000000     0          
I435     I      0.229860000000     0.497260000000     0.000000000000     0          
I436     I      0.502740000000     0.770140000000     0.500000000000     0          


