data_ERAMER

_audit_creation_method RASPA-1.0
_audit_creation_date 2020-11-2
_audit_author_name 'Rocio Bueno-Perez'

_cell_length_a    24.218
_cell_length_b    24.218
_cell_length_c    15.359
_cell_angle_alpha 90
_cell_angle_beta  90
_cell_angle_gamma 90
_cell_volume      9008.23

_symmetry_cell_setting          tetragonal
_symmetry_space_group_name_Hall 'P 1'
_symmetry_space_group_name_H-M  'P 1'
_symmetry_Int_Tables_number     1

_symmetry_equiv_pos_as_xyz 'x,y,z'

loop_
_atom_site_label
_atom_site_type_symbol
_atom_site_fract_x
_atom_site_fract_y
_atom_site_fract_z
_atom_site_charge
O2       O      0.054580000000     0.351400000000     0.585100000000     0          
O3       O      0.102250000000     0.417280000000     0.661200000000     0          
C1       C      0.168170000000     0.232480000000     0.666300000000     0          
C2       C      0.131760000000     0.272190000000     0.634800000000     0          
H1       H      0.107400000000     0.263400000000     0.588400000000     0          
C3       C      0.131120000000     0.324670000000     0.671400000000     0          
C4       C      0.203120000000     0.297900000000     0.770700000000     0          
C5       C      0.203830000000     0.245390000000     0.734200000000     0          
C6       C      0.166750000000     0.337580000000     0.739300000000     0          
H2       H      0.166300000000     0.373500000000     0.764300000000     0          
C7       C      0.170000000000     0.175110000000     0.628200000000     0          
H3       H      0.141500000000     0.152200000000     0.655500000000     0          
H4       H      0.206400000000     0.158800000000     0.639000000000     0          
H5       H      0.163400000000     0.177000000000     0.565300000000     0          
C8       C      0.091810000000     0.368000000000     0.637800000000     0          
C9       C      0.242900000000     0.309100000000     0.844200000000     0          
H6       H      0.238800000000     0.280600000000     0.889000000000     0          
H7       H      0.235000000000     0.345400000000     0.869500000000     0          
H8       H      0.280800000000     0.308600000000     0.821800000000     0          
Zr1      Zr     0.000000000000     0.398540000000     0.500000000000     0          
Zr2      Zr     0.927290000000     0.500000000000     0.614880000000     0          
O1       O      0.000000000000     0.449840000000     0.613200000000     0          
O4       O      0.073100000000     0.450850000000     0.500000000000     0          
O2       O      0.648600000000     0.054580000000     0.085100000000     0          
O3       O      0.582720000000     0.102250000000     0.161200000000     0          
C1       C      0.767520000000     0.168170000000     0.166300000000     0          
C2       C      0.727810000000     0.131760000000     0.134800000000     0          
H1       H      0.736600000000     0.107400000000     0.088400000000     0          
C3       C      0.675330000000     0.131120000000     0.171400000000     0          
C4       C      0.702100000000     0.203120000000     0.270700000000     0          
C5       C      0.754610000000     0.203830000000     0.234200000000     0          
C6       C      0.662420000000     0.166750000000     0.239300000000     0          
H2       H      0.626500000000     0.166300000000     0.264300000000     0          
C7       C      0.824890000000     0.170000000000     0.128200000000     0          
H3       H      0.847800000000     0.141500000000     0.155500000000     0          
H4       H      0.841200000000     0.206400000000     0.139000000000     0          
H5       H      0.823000000000     0.163400000000     0.065300000000     0          
C8       C      0.632000000000     0.091810000000     0.137800000000     0          
C9       C      0.690900000000     0.242900000000     0.344200000000     0          
H6       H      0.719400000000     0.238800000000     0.389000000000     0          
H7       H      0.654600000000     0.235000000000     0.369500000000     0          
H8       H      0.691400000000     0.280800000000     0.321800000000     0          
Zr1      Zr     0.601460000000     0.000000000000     0.000000000000     0          
Zr2      Zr     0.500000000000     0.927290000000     0.114880000000     0          
O1       O      0.550160000000     0.000000000000     0.113200000000     0          
O4       O      0.549150000000     0.073100000000     0.000000000000     0          
O2       O      0.945420000000     0.648600000000     0.585100000000     0          
O3       O      0.897750000000     0.582720000000     0.661200000000     0          
C1       C      0.831830000000     0.767520000000     0.666300000000     0          
C2       C      0.868240000000     0.727810000000     0.634800000000     0          
H1       H      0.892600000000     0.736600000000     0.588400000000     0          
C3       C      0.868880000000     0.675330000000     0.671400000000     0          
C4       C      0.796880000000     0.702100000000     0.770700000000     0          
C5       C      0.796170000000     0.754610000000     0.734200000000     0          
C6       C      0.833250000000     0.662420000000     0.739300000000     0          
H2       H      0.833700000000     0.626500000000     0.764300000000     0          
C7       C      0.830000000000     0.824890000000     0.628200000000     0          
H3       H      0.858500000000     0.847800000000     0.655500000000     0          
H4       H      0.793600000000     0.841200000000     0.639000000000     0          
H5       H      0.836600000000     0.823000000000     0.565300000000     0          
C8       C      0.908190000000     0.632000000000     0.637800000000     0          
C9       C      0.757100000000     0.690900000000     0.844200000000     0          
H6       H      0.761200000000     0.719400000000     0.889000000000     0          
H7       H      0.765000000000     0.654600000000     0.869500000000     0          
H8       H      0.719200000000     0.691400000000     0.821800000000     0          
Zr1      Zr     0.000000000000     0.601460000000     0.500000000000     0          
Zr2      Zr     0.072710000000     0.500000000000     0.614880000000     0          
O1       O      0.000000000000     0.550160000000     0.613200000000     0          
O4       O      0.926900000000     0.549150000000     0.500000000000     0          
O2       O      0.351400000000     0.945420000000     0.085100000000     0          
O3       O      0.417280000000     0.897750000000     0.161200000000     0          
C1       C      0.232480000000     0.831830000000     0.166300000000     0          
C2       C      0.272190000000     0.868240000000     0.134800000000     0          
H1       H      0.263400000000     0.892600000000     0.088400000000     0          
C3       C      0.324670000000     0.868880000000     0.171400000000     0          
C4       C      0.297900000000     0.796880000000     0.270700000000     0          
C5       C      0.245390000000     0.796170000000     0.234200000000     0          
C6       C      0.337580000000     0.833250000000     0.239300000000     0          
H2       H      0.373500000000     0.833700000000     0.264300000000     0          
C7       C      0.175110000000     0.830000000000     0.128200000000     0          
H3       H      0.152200000000     0.858500000000     0.155500000000     0          
H4       H      0.158800000000     0.793600000000     0.139000000000     0          
H5       H      0.177000000000     0.836600000000     0.065300000000     0          
C8       C      0.368000000000     0.908190000000     0.137800000000     0          
C9       C      0.309100000000     0.757100000000     0.344200000000     0          
H6       H      0.280600000000     0.761200000000     0.389000000000     0          
H7       H      0.345400000000     0.765000000000     0.369500000000     0          
H8       H      0.308600000000     0.719200000000     0.321800000000     0          
Zr1      Zr     0.398540000000     0.000000000000     0.000000000000     0          
Zr2      Zr     0.500000000000     0.072710000000     0.114880000000     0          
O1       O      0.449840000000     0.000000000000     0.113200000000     0          
O4       O      0.450850000000     0.926900000000     0.000000000000     0          
O2       O      0.054580000000     0.648600000000     0.414900000000     0          
O3       O      0.102250000000     0.582720000000     0.338800000000     0          
C1       C      0.168170000000     0.767520000000     0.333700000000     0          
C2       C      0.131760000000     0.727810000000     0.365200000000     0          
H1       H      0.107400000000     0.736600000000     0.411600000000     0          
C3       C      0.131120000000     0.675330000000     0.328600000000     0          
C4       C      0.203120000000     0.702100000000     0.229300000000     0          
C5       C      0.203830000000     0.754610000000     0.265800000000     0          
C6       C      0.166750000000     0.662420000000     0.260700000000     0          
H2       H      0.166300000000     0.626500000000     0.235700000000     0          
C7       C      0.170000000000     0.824890000000     0.371800000000     0          
H3       H      0.141500000000     0.847800000000     0.344500000000     0          
H4       H      0.206400000000     0.841200000000     0.361000000000     0          
H5       H      0.163400000000     0.823000000000     0.434700000000     0          
C8       C      0.091810000000     0.632000000000     0.362200000000     0          
C9       C      0.242900000000     0.690900000000     0.155800000000     0          
H6       H      0.238800000000     0.719400000000     0.111000000000     0          
H7       H      0.235000000000     0.654600000000     0.130500000000     0          
H8       H      0.280800000000     0.691400000000     0.178200000000     0          
Zr2      Zr     0.927290000000     0.500000000000     0.385120000000     0          
O1       O      0.000000000000     0.550160000000     0.386800000000     0          
O4       O      0.073100000000     0.549150000000     0.500000000000     0          
O2       O      0.351400000000     0.054580000000     0.914900000000     0          
O3       O      0.417280000000     0.102250000000     0.838800000000     0          
C1       C      0.232480000000     0.168170000000     0.833700000000     0          
C2       C      0.272190000000     0.131760000000     0.865200000000     0          
H1       H      0.263400000000     0.107400000000     0.911600000000     0          
C3       C      0.324670000000     0.131120000000     0.828600000000     0          
C4       C      0.297900000000     0.203120000000     0.729300000000     0          
C5       C      0.245390000000     0.203830000000     0.765800000000     0          
C6       C      0.337580000000     0.166750000000     0.760700000000     0          
H2       H      0.373500000000     0.166300000000     0.735700000000     0          
C7       C      0.175110000000     0.170000000000     0.871800000000     0          
H3       H      0.152200000000     0.141500000000     0.844500000000     0          
H4       H      0.158800000000     0.206400000000     0.861000000000     0          
H5       H      0.177000000000     0.163400000000     0.934700000000     0          
C8       C      0.368000000000     0.091810000000     0.862200000000     0          
C9       C      0.309100000000     0.242900000000     0.655800000000     0          
H6       H      0.280600000000     0.238800000000     0.611000000000     0          
H7       H      0.345400000000     0.235000000000     0.630500000000     0          
H8       H      0.308600000000     0.280800000000     0.678200000000     0          
Zr2      Zr     0.500000000000     0.927290000000     0.885120000000     0          
O1       O      0.449840000000     0.000000000000     0.886800000000     0          
O4       O      0.450850000000     0.073100000000     0.000000000000     0          
O2       O      0.945420000000     0.351400000000     0.414900000000     0          
O3       O      0.897750000000     0.417280000000     0.338800000000     0          
C1       C      0.831830000000     0.232480000000     0.333700000000     0          
C2       C      0.868240000000     0.272190000000     0.365200000000     0          
H1       H      0.892600000000     0.263400000000     0.411600000000     0          
C3       C      0.868880000000     0.324670000000     0.328600000000     0          
C4       C      0.796880000000     0.297900000000     0.229300000000     0          
C5       C      0.796170000000     0.245390000000     0.265800000000     0          
C6       C      0.833250000000     0.337580000000     0.260700000000     0          
H2       H      0.833700000000     0.373500000000     0.235700000000     0          
C7       C      0.830000000000     0.175110000000     0.371800000000     0          
H3       H      0.858500000000     0.152200000000     0.344500000000     0          
H4       H      0.793600000000     0.158800000000     0.361000000000     0          
H5       H      0.836600000000     0.177000000000     0.434700000000     0          
C8       C      0.908190000000     0.368000000000     0.362200000000     0          
C9       C      0.757100000000     0.309100000000     0.155800000000     0          
H6       H      0.761200000000     0.280600000000     0.111000000000     0          
H7       H      0.765000000000     0.345400000000     0.130500000000     0          
H8       H      0.719200000000     0.308600000000     0.178200000000     0          
Zr2      Zr     0.072710000000     0.500000000000     0.385120000000     0          
O1       O      0.000000000000     0.449840000000     0.386800000000     0          
O4       O      0.926900000000     0.450850000000     0.500000000000     0          
O2       O      0.648600000000     0.945420000000     0.914900000000     0          
O3       O      0.582720000000     0.897750000000     0.838800000000     0          
C1       C      0.767520000000     0.831830000000     0.833700000000     0          
C2       C      0.727810000000     0.868240000000     0.865200000000     0          
H1       H      0.736600000000     0.892600000000     0.911600000000     0          
C3       C      0.675330000000     0.868880000000     0.828600000000     0          
C4       C      0.702100000000     0.796880000000     0.729300000000     0          
C5       C      0.754610000000     0.796170000000     0.765800000000     0          
C6       C      0.662420000000     0.833250000000     0.760700000000     0          
H2       H      0.626500000000     0.833700000000     0.735700000000     0          
C7       C      0.824890000000     0.830000000000     0.871800000000     0          
H3       H      0.847800000000     0.858500000000     0.844500000000     0          
H4       H      0.841200000000     0.793600000000     0.861000000000     0          
H5       H      0.823000000000     0.836600000000     0.934700000000     0          
C8       C      0.632000000000     0.908190000000     0.862200000000     0          
C9       C      0.690900000000     0.757100000000     0.655800000000     0          
H6       H      0.719400000000     0.761200000000     0.611000000000     0          
H7       H      0.654600000000     0.765000000000     0.630500000000     0          
H8       H      0.691400000000     0.719200000000     0.678200000000     0          
Zr2      Zr     0.500000000000     0.072710000000     0.885120000000     0          
O1       O      0.550160000000     0.000000000000     0.886800000000     0          
O4       O      0.549150000000     0.926900000000     0.000000000000     0          
O2       O      0.945420000000     0.648600000000     0.414900000000     0          
O3       O      0.897750000000     0.582720000000     0.338800000000     0          
C1       C      0.831830000000     0.767520000000     0.333700000000     0          
C2       C      0.868240000000     0.727810000000     0.365200000000     0          
H1       H      0.892600000000     0.736600000000     0.411600000000     0          
C3       C      0.868880000000     0.675330000000     0.328600000000     0          
C4       C      0.796880000000     0.702100000000     0.229300000000     0          
C5       C      0.796170000000     0.754610000000     0.265800000000     0          
C6       C      0.833250000000     0.662420000000     0.260700000000     0          
H2       H      0.833700000000     0.626500000000     0.235700000000     0          
C7       C      0.830000000000     0.824890000000     0.371800000000     0          
H3       H      0.858500000000     0.847800000000     0.344500000000     0          
H4       H      0.793600000000     0.841200000000     0.361000000000     0          
H5       H      0.836600000000     0.823000000000     0.434700000000     0          
C8       C      0.908190000000     0.632000000000     0.362200000000     0          
C9       C      0.757100000000     0.690900000000     0.155800000000     0          
H6       H      0.761200000000     0.719400000000     0.111000000000     0          
H7       H      0.765000000000     0.654600000000     0.130500000000     0          
H8       H      0.719200000000     0.691400000000     0.178200000000     0          
O2       O      0.351400000000     0.945420000000     0.914900000000     0          
O3       O      0.417280000000     0.897750000000     0.838800000000     0          
C1       C      0.232480000000     0.831830000000     0.833700000000     0          
C2       C      0.272190000000     0.868240000000     0.865200000000     0          
H1       H      0.263400000000     0.892600000000     0.911600000000     0          
C3       C      0.324670000000     0.868880000000     0.828600000000     0          
C4       C      0.297900000000     0.796880000000     0.729300000000     0          
C5       C      0.245390000000     0.796170000000     0.765800000000     0          
C6       C      0.337580000000     0.833250000000     0.760700000000     0          
H2       H      0.373500000000     0.833700000000     0.735700000000     0          
C7       C      0.175110000000     0.830000000000     0.871800000000     0          
H3       H      0.152200000000     0.858500000000     0.844500000000     0          
H4       H      0.158800000000     0.793600000000     0.861000000000     0          
H5       H      0.177000000000     0.836600000000     0.934700000000     0          
C8       C      0.368000000000     0.908190000000     0.862200000000     0          
C9       C      0.309100000000     0.757100000000     0.655800000000     0          
H6       H      0.280600000000     0.761200000000     0.611000000000     0          
H7       H      0.345400000000     0.765000000000     0.630500000000     0          
H8       H      0.308600000000     0.719200000000     0.678200000000     0          
O2       O      0.054580000000     0.351400000000     0.414900000000     0          
O3       O      0.102250000000     0.417280000000     0.338800000000     0          
C1       C      0.168170000000     0.232480000000     0.333700000000     0          
C2       C      0.131760000000     0.272190000000     0.365200000000     0          
H1       H      0.107400000000     0.263400000000     0.411600000000     0          
C3       C      0.131120000000     0.324670000000     0.328600000000     0          
C4       C      0.203120000000     0.297900000000     0.229300000000     0          
C5       C      0.203830000000     0.245390000000     0.265800000000     0          
C6       C      0.166750000000     0.337580000000     0.260700000000     0          
H2       H      0.166300000000     0.373500000000     0.235700000000     0          
C7       C      0.170000000000     0.175110000000     0.371800000000     0          
H3       H      0.141500000000     0.152200000000     0.344500000000     0          
H4       H      0.206400000000     0.158800000000     0.361000000000     0          
H5       H      0.163400000000     0.177000000000     0.434700000000     0          
C8       C      0.091810000000     0.368000000000     0.362200000000     0          
C9       C      0.242900000000     0.309100000000     0.155800000000     0          
H6       H      0.238800000000     0.280600000000     0.111000000000     0          
H7       H      0.235000000000     0.345400000000     0.130500000000     0          
H8       H      0.280800000000     0.308600000000     0.178200000000     0          
O2       O      0.648600000000     0.054580000000     0.914900000000     0          
O3       O      0.582720000000     0.102250000000     0.838800000000     0          
C1       C      0.767520000000     0.168170000000     0.833700000000     0          
C2       C      0.727810000000     0.131760000000     0.865200000000     0          
H1       H      0.736600000000     0.107400000000     0.911600000000     0          
C3       C      0.675330000000     0.131120000000     0.828600000000     0          
C4       C      0.702100000000     0.203120000000     0.729300000000     0          
C5       C      0.754610000000     0.203830000000     0.765800000000     0          
C6       C      0.662420000000     0.166750000000     0.760700000000     0          
H2       H      0.626500000000     0.166300000000     0.735700000000     0          
C7       C      0.824890000000     0.170000000000     0.871800000000     0          
H3       H      0.847800000000     0.141500000000     0.844500000000     0          
H4       H      0.841200000000     0.206400000000     0.861000000000     0          
H5       H      0.823000000000     0.163400000000     0.934700000000     0          
C8       C      0.632000000000     0.091810000000     0.862200000000     0          
C9       C      0.690900000000     0.242900000000     0.655800000000     0          
H6       H      0.719400000000     0.238800000000     0.611000000000     0          
H7       H      0.654600000000     0.235000000000     0.630500000000     0          
H8       H      0.691400000000     0.280800000000     0.678200000000     0          
O2       O      0.945420000000     0.351400000000     0.585100000000     0          
O3       O      0.897750000000     0.417280000000     0.661200000000     0          
C1       C      0.831830000000     0.232480000000     0.666300000000     0          
C2       C      0.868240000000     0.272190000000     0.634800000000     0          
H1       H      0.892600000000     0.263400000000     0.588400000000     0          
C3       C      0.868880000000     0.324670000000     0.671400000000     0          
C4       C      0.796880000000     0.297900000000     0.770700000000     0          
C5       C      0.796170000000     0.245390000000     0.734200000000     0          
C6       C      0.833250000000     0.337580000000     0.739300000000     0          
H2       H      0.833700000000     0.373500000000     0.764300000000     0          
C7       C      0.830000000000     0.175110000000     0.628200000000     0          
H3       H      0.858500000000     0.152200000000     0.655500000000     0          
H4       H      0.793600000000     0.158800000000     0.639000000000     0          
H5       H      0.836600000000     0.177000000000     0.565300000000     0          
C8       C      0.908190000000     0.368000000000     0.637800000000     0          
C9       C      0.757100000000     0.309100000000     0.844200000000     0          
H6       H      0.761200000000     0.280600000000     0.889000000000     0          
H7       H      0.765000000000     0.345400000000     0.869500000000     0          
H8       H      0.719200000000     0.308600000000     0.821800000000     0          
O2       O      0.648600000000     0.945420000000     0.085100000000     0          
O3       O      0.582720000000     0.897750000000     0.161200000000     0          
C1       C      0.767520000000     0.831830000000     0.166300000000     0          
C2       C      0.727810000000     0.868240000000     0.134800000000     0          
H1       H      0.736600000000     0.892600000000     0.088400000000     0          
C3       C      0.675330000000     0.868880000000     0.171400000000     0          
C4       C      0.702100000000     0.796880000000     0.270700000000     0          
C5       C      0.754610000000     0.796170000000     0.234200000000     0          
C6       C      0.662420000000     0.833250000000     0.239300000000     0          
H2       H      0.626500000000     0.833700000000     0.264300000000     0          
C7       C      0.824890000000     0.830000000000     0.128200000000     0          
H3       H      0.847800000000     0.858500000000     0.155500000000     0          
H4       H      0.841200000000     0.793600000000     0.139000000000     0          
H5       H      0.823000000000     0.836600000000     0.065300000000     0          
C8       C      0.632000000000     0.908190000000     0.137800000000     0          
C9       C      0.690900000000     0.757100000000     0.344200000000     0          
H6       H      0.719400000000     0.761200000000     0.389000000000     0          
H7       H      0.654600000000     0.765000000000     0.369500000000     0          
H8       H      0.691400000000     0.719200000000     0.321800000000     0          
O2       O      0.054580000000     0.648600000000     0.585100000000     0          
O3       O      0.102250000000     0.582720000000     0.661200000000     0          
C1       C      0.168170000000     0.767520000000     0.666300000000     0          
C2       C      0.131760000000     0.727810000000     0.634800000000     0          
H1       H      0.107400000000     0.736600000000     0.588400000000     0          
C3       C      0.131120000000     0.675330000000     0.671400000000     0          
C4       C      0.203120000000     0.702100000000     0.770700000000     0          
C5       C      0.203830000000     0.754610000000     0.734200000000     0          
C6       C      0.166750000000     0.662420000000     0.739300000000     0          
H2       H      0.166300000000     0.626500000000     0.764300000000     0          
C7       C      0.170000000000     0.824890000000     0.628200000000     0          
H3       H      0.141500000000     0.847800000000     0.655500000000     0          
H4       H      0.206400000000     0.841200000000     0.639000000000     0          
H5       H      0.163400000000     0.823000000000     0.565300000000     0          
C8       C      0.091810000000     0.632000000000     0.637800000000     0          
C9       C      0.242900000000     0.690900000000     0.844200000000     0          
H6       H      0.238800000000     0.719400000000     0.889000000000     0          
H7       H      0.235000000000     0.654600000000     0.869500000000     0          
H8       H      0.280800000000     0.691400000000     0.821800000000     0          
O2       O      0.351400000000     0.054580000000     0.085100000000     0          
O3       O      0.417280000000     0.102250000000     0.161200000000     0          
C1       C      0.232480000000     0.168170000000     0.166300000000     0          
C2       C      0.272190000000     0.131760000000     0.134800000000     0          
H1       H      0.263400000000     0.107400000000     0.088400000000     0          
C3       C      0.324670000000     0.131120000000     0.171400000000     0          
C4       C      0.297900000000     0.203120000000     0.270700000000     0          
C5       C      0.245390000000     0.203830000000     0.234200000000     0          
C6       C      0.337580000000     0.166750000000     0.239300000000     0          
H2       H      0.373500000000     0.166300000000     0.264300000000     0          
C7       C      0.175110000000     0.170000000000     0.128200000000     0          
H3       H      0.152200000000     0.141500000000     0.155500000000     0          
H4       H      0.158800000000     0.206400000000     0.139000000000     0          
H5       H      0.177000000000     0.163400000000     0.065300000000     0          
C8       C      0.368000000000     0.091810000000     0.137800000000     0          
C9       C      0.309100000000     0.242900000000     0.344200000000     0          
H6       H      0.280600000000     0.238800000000     0.389000000000     0          
H7       H      0.345400000000     0.235000000000     0.369500000000     0          
H8       H      0.308600000000     0.280800000000     0.321800000000     0          


