data_ERANES

_audit_creation_method RASPA-1.0
_audit_creation_date 2020-11-2
_audit_author_name 'Rocio Bueno-Perez'

_cell_length_a    24.378
_cell_length_b    24.378
_cell_length_c    15.017
_cell_angle_alpha 90
_cell_angle_beta  90
_cell_angle_gamma 90
_cell_volume      8924.41

_symmetry_cell_setting          triclinic
_symmetry_space_group_name_Hall 'P 1'
_symmetry_space_group_name_H-M  'P 1'
_symmetry_Int_Tables_number     1

_symmetry_equiv_pos_as_xyz 'x,y,z'

loop_
_atom_site_label
_atom_site_type_symbol
_atom_site_fract_x
_atom_site_fract_y
_atom_site_fract_z
_atom_site_charge
O1       O      0.852810000000     0.445500000000     0.588900000000     0          
O2       O      0.918000000000     0.396200000000     0.662900000000     0          
C3       C      0.868100000000     0.408000000000     0.640000000000     0          
C4       C      0.826300000000     0.367400000000     0.673200000000     0          
C5       C      0.773900000000     0.371600000000     0.642100000000     0          
H6       H      0.764400000000     0.399400000000     0.600500000000     0          
C7       C      0.733400000000     0.333600000000     0.672600000000     0          
C8       C      0.746600000000     0.294200000000     0.732500000000     0          
C9       C      0.802100000000     0.289500000000     0.763300000000     0          
H10      H      0.812200000000     0.261300000000     0.803700000000     0          
C11      C      0.840500000000     0.326700000000     0.733000000000     0          
H12      H      0.877300000000     0.324200000000     0.753600000000     0          
C13      C      0.676000000000     0.339500000000     0.635000000000     0          
H14      H      0.674900000000     0.370500000000     0.593400000000     0          
H15      H      0.650000000000     0.346000000000     0.683700000000     0          
H16      H      0.665800000000     0.305700000000     0.603500000000     0          
H17      H      0.967900000000     0.114300000000     0.669200000000     0          
O18      O      0.147190000000     0.554500000000     0.588900000000     0          
O19      O      0.082000000000     0.603800000000     0.662900000000     0          
C20      C      0.131900000000     0.592000000000     0.640000000000     0          
C21      C      0.173700000000     0.632600000000     0.673200000000     0          
C22      C      0.226100000000     0.628400000000     0.642100000000     0          
H23      H      0.235600000000     0.600600000000     0.600500000000     0          
C24      C      0.266600000000     0.666400000000     0.672600000000     0          
C25      C      0.253400000000     0.705800000000     0.732500000000     0          
C26      C      0.197900000000     0.710500000000     0.763300000000     0          
H27      H      0.187800000000     0.738700000000     0.803700000000     0          
C28      C      0.159500000000     0.673300000000     0.733000000000     0          
H29      H      0.122700000000     0.675800000000     0.753600000000     0          
C30      C      0.324000000000     0.660500000000     0.635000000000     0          
H31      H      0.325100000000     0.629500000000     0.593400000000     0          
H32      H      0.350000000000     0.654000000000     0.683700000000     0          
H33      H      0.334200000000     0.694300000000     0.603500000000     0          
O34      O      0.554500000000     0.852810000000     0.088900000000     0          
O35      O      0.603800000000     0.918000000000     0.162900000000     0          
C36      C      0.592000000000     0.868100000000     0.140000000000     0          
C37      C      0.632600000000     0.826300000000     0.173200000000     0          
C38      C      0.628400000000     0.773900000000     0.142100000000     0          
H39      H      0.600600000000     0.764400000000     0.100500000000     0          
C40      C      0.666400000000     0.733400000000     0.172600000000     0          
C41      C      0.705800000000     0.746600000000     0.232500000000     0          
C42      C      0.710500000000     0.802100000000     0.263300000000     0          
H43      H      0.738700000000     0.812200000000     0.303700000000     0          
C44      C      0.673300000000     0.840500000000     0.233000000000     0          
H45      H      0.675800000000     0.877300000000     0.253600000000     0          
C46      C      0.660500000000     0.676000000000     0.135000000000     0          
H47      H      0.629500000000     0.674900000000     0.093400000000     0          
H48      H      0.654000000000     0.650000000000     0.183700000000     0          
H49      H      0.694300000000     0.665800000000     0.103500000000     0          
O50      O      0.445500000000     0.147190000000     0.088900000000     0          
O51      O      0.396200000000     0.082000000000     0.162900000000     0          
C52      C      0.408000000000     0.131900000000     0.140000000000     0          
C53      C      0.367400000000     0.173700000000     0.173200000000     0          
C54      C      0.371600000000     0.226100000000     0.142100000000     0          
H55      H      0.399400000000     0.235600000000     0.100500000000     0          
C56      C      0.333600000000     0.266600000000     0.172600000000     0          
C57      C      0.294200000000     0.253400000000     0.232500000000     0          
C58      C      0.289500000000     0.197900000000     0.263300000000     0          
H59      H      0.261300000000     0.187800000000     0.303700000000     0          
C60      C      0.326700000000     0.159500000000     0.233000000000     0          
H61      H      0.324200000000     0.122700000000     0.253600000000     0          
C62      C      0.339500000000     0.324000000000     0.135000000000     0          
H63      H      0.370500000000     0.325100000000     0.093400000000     0          
H64      H      0.346000000000     0.350000000000     0.183700000000     0          
H65      H      0.305700000000     0.334200000000     0.103500000000     0          
H66      H      0.114300000000     0.032100000000     0.169200000000     0          
O67      O      0.147190000000     0.445500000000     0.411100000000     0          
O68      O      0.082000000000     0.396200000000     0.337100000000     0          
C69      C      0.131900000000     0.408000000000     0.360000000000     0          
C70      C      0.173700000000     0.367400000000     0.326800000000     0          
C71      C      0.226100000000     0.371600000000     0.357900000000     0          
H72      H      0.235600000000     0.399400000000     0.399500000000     0          
C73      C      0.266600000000     0.333600000000     0.327400000000     0          
C74      C      0.253400000000     0.294200000000     0.267500000000     0          
C75      C      0.197900000000     0.289500000000     0.236700000000     0          
H76      H      0.187800000000     0.261300000000     0.196300000000     0          
C77      C      0.159500000000     0.326700000000     0.267000000000     0          
H78      H      0.122700000000     0.324200000000     0.246400000000     0          
C79      C      0.324000000000     0.339500000000     0.365000000000     0          
H80      H      0.325100000000     0.370500000000     0.406600000000     0          
H81      H      0.350000000000     0.346000000000     0.316300000000     0          
H82      H      0.334200000000     0.305700000000     0.396500000000     0          
O83      O      0.852810000000     0.554500000000     0.411100000000     0          
O84      O      0.918000000000     0.603800000000     0.337100000000     0          
C85      C      0.868100000000     0.592000000000     0.360000000000     0          
C86      C      0.826300000000     0.632600000000     0.326800000000     0          
C87      C      0.773900000000     0.628400000000     0.357900000000     0          
H88      H      0.764400000000     0.600600000000     0.399500000000     0          
C89      C      0.733400000000     0.666400000000     0.327400000000     0          
C90      C      0.746600000000     0.705800000000     0.267500000000     0          
C91      C      0.802100000000     0.710500000000     0.236700000000     0          
H92      H      0.812200000000     0.738700000000     0.196300000000     0          
C93      C      0.840500000000     0.673300000000     0.267000000000     0          
H94      H      0.877300000000     0.675800000000     0.246400000000     0          
C95      C      0.676000000000     0.660500000000     0.365000000000     0          
H96      H      0.674900000000     0.629500000000     0.406600000000     0          
H97      H      0.650000000000     0.654000000000     0.316300000000     0          
H98      H      0.665800000000     0.694300000000     0.396500000000     0          
H99      H      0.967900000000     0.885700000000     0.330800000000     0          
O100     O      0.445500000000     0.852810000000     0.911100000000     0          
O101     O      0.396200000000     0.918000000000     0.837100000000     0          
C102     C      0.408000000000     0.868100000000     0.860000000000     0          
C103     C      0.367400000000     0.826300000000     0.826800000000     0          
C104     C      0.371600000000     0.773900000000     0.857900000000     0          
H105     H      0.399400000000     0.764400000000     0.899500000000     0          
C106     C      0.333600000000     0.733400000000     0.827400000000     0          
C107     C      0.294200000000     0.746600000000     0.767500000000     0          
C108     C      0.289500000000     0.802100000000     0.736700000000     0          
H109     H      0.261300000000     0.812200000000     0.696300000000     0          
C110     C      0.326700000000     0.840500000000     0.767000000000     0          
H111     H      0.324200000000     0.877300000000     0.746400000000     0          
C112     C      0.339500000000     0.676000000000     0.865000000000     0          
H113     H      0.370500000000     0.674900000000     0.906600000000     0          
H114     H      0.346000000000     0.650000000000     0.816300000000     0          
H115     H      0.305700000000     0.665800000000     0.896500000000     0          
O116     O      0.554500000000     0.147190000000     0.911100000000     0          
O117     O      0.603800000000     0.082000000000     0.837100000000     0          
C118     C      0.592000000000     0.131900000000     0.860000000000     0          
C119     C      0.632600000000     0.173700000000     0.826800000000     0          
C120     C      0.628400000000     0.226100000000     0.857900000000     0          
H121     H      0.600600000000     0.235600000000     0.899500000000     0          
C122     C      0.666400000000     0.266600000000     0.827400000000     0          
C123     C      0.705800000000     0.253400000000     0.767500000000     0          
C124     C      0.710500000000     0.197900000000     0.736700000000     0          
H125     H      0.738700000000     0.187800000000     0.696300000000     0          
C126     C      0.673300000000     0.159500000000     0.767000000000     0          
H127     H      0.675800000000     0.122700000000     0.746400000000     0          
C128     C      0.660500000000     0.324000000000     0.865000000000     0          
H129     H      0.629500000000     0.325100000000     0.906600000000     0          
H130     H      0.654000000000     0.350000000000     0.816300000000     0          
H131     H      0.694300000000     0.334200000000     0.896500000000     0          
H132     H      0.885700000000     0.032100000000     0.830800000000     0          
O133     O      0.147190000000     0.554500000000     0.411100000000     0          
O134     O      0.082000000000     0.603800000000     0.337100000000     0          
C135     C      0.131900000000     0.592000000000     0.360000000000     0          
C136     C      0.173700000000     0.632600000000     0.326800000000     0          
C137     C      0.226100000000     0.628400000000     0.357900000000     0          
H138     H      0.235600000000     0.600600000000     0.399500000000     0          
C139     C      0.266600000000     0.666400000000     0.327400000000     0          
C140     C      0.253400000000     0.705800000000     0.267500000000     0          
C141     C      0.197900000000     0.710500000000     0.236700000000     0          
H142     H      0.187800000000     0.738700000000     0.196300000000     0          
C143     C      0.159500000000     0.673300000000     0.267000000000     0          
H144     H      0.122700000000     0.675800000000     0.246400000000     0          
C145     C      0.324000000000     0.660500000000     0.365000000000     0          
H146     H      0.325100000000     0.629500000000     0.406600000000     0          
H147     H      0.350000000000     0.654000000000     0.316300000000     0          
H148     H      0.334200000000     0.694300000000     0.396500000000     0          
H149     H      0.032100000000     0.885700000000     0.330800000000     0          
O150     O      0.852810000000     0.445500000000     0.411100000000     0          
O151     O      0.918000000000     0.396200000000     0.337100000000     0          
C152     C      0.868100000000     0.408000000000     0.360000000000     0          
C153     C      0.826300000000     0.367400000000     0.326800000000     0          
C154     C      0.773900000000     0.371600000000     0.357900000000     0          
H155     H      0.764400000000     0.399400000000     0.399500000000     0          
C156     C      0.733400000000     0.333600000000     0.327400000000     0          
C157     C      0.746600000000     0.294200000000     0.267500000000     0          
C158     C      0.802100000000     0.289500000000     0.236700000000     0          
H159     H      0.812200000000     0.261300000000     0.196300000000     0          
C160     C      0.840500000000     0.326700000000     0.267000000000     0          
H161     H      0.877300000000     0.324200000000     0.246400000000     0          
C162     C      0.676000000000     0.339500000000     0.365000000000     0          
H163     H      0.674900000000     0.370500000000     0.406600000000     0          
H164     H      0.650000000000     0.346000000000     0.316300000000     0          
H165     H      0.665800000000     0.305700000000     0.396500000000     0          
O166     O      0.445500000000     0.147190000000     0.911100000000     0          
O167     O      0.396200000000     0.082000000000     0.837100000000     0          
C168     C      0.408000000000     0.131900000000     0.860000000000     0          
C169     C      0.367400000000     0.173700000000     0.826800000000     0          
C170     C      0.371600000000     0.226100000000     0.857900000000     0          
H171     H      0.399400000000     0.235600000000     0.899500000000     0          
C172     C      0.333600000000     0.266600000000     0.827400000000     0          
C173     C      0.294200000000     0.253400000000     0.767500000000     0          
C174     C      0.289500000000     0.197900000000     0.736700000000     0          
H175     H      0.261300000000     0.187800000000     0.696300000000     0          
C176     C      0.326700000000     0.159500000000     0.767000000000     0          
H177     H      0.324200000000     0.122700000000     0.746400000000     0          
C178     C      0.339500000000     0.324000000000     0.865000000000     0          
H179     H      0.370500000000     0.325100000000     0.906600000000     0          
H180     H      0.346000000000     0.350000000000     0.816300000000     0          
H181     H      0.305700000000     0.334200000000     0.896500000000     0          
O182     O      0.554500000000     0.852810000000     0.911100000000     0          
O183     O      0.603800000000     0.918000000000     0.837100000000     0          
C184     C      0.592000000000     0.868100000000     0.860000000000     0          
C185     C      0.632600000000     0.826300000000     0.826800000000     0          
C186     C      0.628400000000     0.773900000000     0.857900000000     0          
H187     H      0.600600000000     0.764400000000     0.899500000000     0          
C188     C      0.666400000000     0.733400000000     0.827400000000     0          
C189     C      0.705800000000     0.746600000000     0.767500000000     0          
C190     C      0.710500000000     0.802100000000     0.736700000000     0          
H191     H      0.738700000000     0.812200000000     0.696300000000     0          
C192     C      0.673300000000     0.840500000000     0.767000000000     0          
H193     H      0.675800000000     0.877300000000     0.746400000000     0          
C194     C      0.660500000000     0.676000000000     0.865000000000     0          
H195     H      0.629500000000     0.674900000000     0.906600000000     0          
H196     H      0.654000000000     0.650000000000     0.816300000000     0          
H197     H      0.694300000000     0.665800000000     0.896500000000     0          
H198     H      0.885700000000     0.967900000000     0.830800000000     0          
O199     O      0.852810000000     0.554500000000     0.588900000000     0          
O200     O      0.918000000000     0.603800000000     0.662900000000     0          
C201     C      0.868100000000     0.592000000000     0.640000000000     0          
C202     C      0.826300000000     0.632600000000     0.673200000000     0          
C203     C      0.773900000000     0.628400000000     0.642100000000     0          
H204     H      0.764400000000     0.600600000000     0.600500000000     0          
C205     C      0.733400000000     0.666400000000     0.672600000000     0          
C206     C      0.746600000000     0.705800000000     0.732500000000     0          
C207     C      0.802100000000     0.710500000000     0.763300000000     0          
H208     H      0.812200000000     0.738700000000     0.803700000000     0          
C209     C      0.840500000000     0.673300000000     0.733000000000     0          
H210     H      0.877300000000     0.675800000000     0.753600000000     0          
C211     C      0.676000000000     0.660500000000     0.635000000000     0          
H212     H      0.674900000000     0.629500000000     0.593400000000     0          
H213     H      0.650000000000     0.654000000000     0.683700000000     0          
H214     H      0.665800000000     0.694300000000     0.603500000000     0          
O215     O      0.147190000000     0.445500000000     0.588900000000     0          
O216     O      0.082000000000     0.396200000000     0.662900000000     0          
C217     C      0.131900000000     0.408000000000     0.640000000000     0          
C218     C      0.173700000000     0.367400000000     0.673200000000     0          
C219     C      0.226100000000     0.371600000000     0.642100000000     0          
H220     H      0.235600000000     0.399400000000     0.600500000000     0          
C221     C      0.266600000000     0.333600000000     0.672600000000     0          
C222     C      0.253400000000     0.294200000000     0.732500000000     0          
C223     C      0.197900000000     0.289500000000     0.763300000000     0          
H224     H      0.187800000000     0.261300000000     0.803700000000     0          
C225     C      0.159500000000     0.326700000000     0.733000000000     0          
H226     H      0.122700000000     0.324200000000     0.753600000000     0          
C227     C      0.324000000000     0.339500000000     0.635000000000     0          
H228     H      0.325100000000     0.370500000000     0.593400000000     0          
H229     H      0.350000000000     0.346000000000     0.683700000000     0          
H230     H      0.334200000000     0.305700000000     0.603500000000     0          
H231     H      0.032100000000     0.114300000000     0.669200000000     0          
O232     O      0.554500000000     0.147190000000     0.088900000000     0          
O233     O      0.603800000000     0.082000000000     0.162900000000     0          
C234     C      0.592000000000     0.131900000000     0.140000000000     0          
C235     C      0.632600000000     0.173700000000     0.173200000000     0          
C236     C      0.628400000000     0.226100000000     0.142100000000     0          
H237     H      0.600600000000     0.235600000000     0.100500000000     0          
C238     C      0.666400000000     0.266600000000     0.172600000000     0          
C239     C      0.705800000000     0.253400000000     0.232500000000     0          
C240     C      0.710500000000     0.197900000000     0.263300000000     0          
H241     H      0.738700000000     0.187800000000     0.303700000000     0          
C242     C      0.673300000000     0.159500000000     0.233000000000     0          
H243     H      0.675800000000     0.122700000000     0.253600000000     0          
C244     C      0.660500000000     0.324000000000     0.135000000000     0          
H245     H      0.629500000000     0.325100000000     0.093400000000     0          
H246     H      0.654000000000     0.350000000000     0.183700000000     0          
H247     H      0.694300000000     0.334200000000     0.103500000000     0          
O248     O      0.445500000000     0.852810000000     0.088900000000     0          
O249     O      0.396200000000     0.918000000000     0.162900000000     0          
C250     C      0.408000000000     0.868100000000     0.140000000000     0          
C251     C      0.367400000000     0.826300000000     0.173200000000     0          
C252     C      0.371600000000     0.773900000000     0.142100000000     0          
H253     H      0.399400000000     0.764400000000     0.100500000000     0          
C254     C      0.333600000000     0.733400000000     0.172600000000     0          
C255     C      0.294200000000     0.746600000000     0.232500000000     0          
C256     C      0.289500000000     0.802100000000     0.263300000000     0          
H257     H      0.261300000000     0.812200000000     0.303700000000     0          
C258     C      0.326700000000     0.840500000000     0.233000000000     0          
H259     H      0.324200000000     0.877300000000     0.253600000000     0          
C260     C      0.339500000000     0.676000000000     0.135000000000     0          
H261     H      0.370500000000     0.674900000000     0.093400000000     0          
H262     H      0.346000000000     0.650000000000     0.183700000000     0          
H263     H      0.305700000000     0.665800000000     0.103500000000     0          
H264     H      0.114300000000     0.967900000000     0.169200000000     0          
Zr265    Zr     0.899030000000     0.500000000000     0.500000000000     0          
Zr266    Zr     0.100970000000     0.500000000000     0.500000000000     0          
Zr267    Zr     0.500000000000     0.899030000000     0.000000000000     0          
Zr268    Zr     0.500000000000     0.100970000000     0.000000000000     0          
Zr269    Zr     0.000000000000     0.427030000000     0.617060000000     0          
O270     O      0.000000000000     0.430900000000     0.765600000000     0          
C271     C      0.000000000000     0.224500000000     0.581200000000     0          
H272     H      0.000000000000     0.244000000000     0.636000000000     0          
C273     C      0.000000000000     0.167600000000     0.579100000000     0          
C274     C      0.000000000000     0.136900000000     0.665800000000     0          
O275     O      0.000000000000     0.338900000000     0.602700000000     0          
H276     H      0.000000000000     0.162500000000     0.714300000000     0          
Zr277    Zr     0.000000000000     0.572970000000     0.617060000000     0          
O278     O      0.000000000000     0.569100000000     0.765600000000     0          
C279     C      0.000000000000     0.775500000000     0.581200000000     0          
H280     H      0.000000000000     0.756000000000     0.636000000000     0          
C281     C      0.000000000000     0.832400000000     0.579100000000     0          
O282     O      0.000000000000     0.661100000000     0.602700000000     0          
H283     H      0.000000000000     0.852300000000     0.636100000000     0          
Zr284    Zr     0.572970000000     0.000000000000     0.117060000000     0          
O285     O      0.569100000000     0.000000000000     0.265600000000     0          
C286     C      0.775500000000     0.000000000000     0.081200000000     0          
H287     H      0.756000000000     0.000000000000     0.136000000000     0          
C288     C      0.832400000000     0.000000000000     0.079100000000     0          
O289     O      0.661100000000     0.000000000000     0.102700000000     0          
H290     H      0.852300000000     0.000000000000     0.136100000000     0          
Zr291    Zr     0.427030000000     0.000000000000     0.117060000000     0          
O292     O      0.430900000000     0.000000000000     0.265600000000     0          
C293     C      0.224500000000     0.000000000000     0.081200000000     0          
H294     H      0.244000000000     0.000000000000     0.136000000000     0          
C295     C      0.167600000000     0.000000000000     0.079100000000     0          
C296     C      0.136900000000     0.000000000000     0.165800000000     0          
O297     O      0.338900000000     0.000000000000     0.102700000000     0          
H298     H      0.162500000000     0.000000000000     0.214300000000     0          
Zr299    Zr     0.000000000000     0.427030000000     0.382940000000     0          
O300     O      0.000000000000     0.430900000000     0.234400000000     0          
C301     C      0.000000000000     0.224500000000     0.418800000000     0          
H302     H      0.000000000000     0.244000000000     0.364000000000     0          
C303     C      0.000000000000     0.167600000000     0.420900000000     0          
O304     O      0.000000000000     0.338900000000     0.397300000000     0          
H305     H      0.000000000000     0.147700000000     0.363900000000     0          
Zr306    Zr     0.000000000000     0.572970000000     0.382940000000     0          
O307     O      0.000000000000     0.569100000000     0.234400000000     0          
C308     C      0.000000000000     0.775500000000     0.418800000000     0          
H309     H      0.000000000000     0.756000000000     0.364000000000     0          
C310     C      0.000000000000     0.832400000000     0.420900000000     0          
C311     C      0.000000000000     0.863100000000     0.334200000000     0          
O312     O      0.000000000000     0.661100000000     0.397300000000     0          
H313     H      0.000000000000     0.837500000000     0.285700000000     0          
Zr314    Zr     0.427030000000     0.000000000000     0.882940000000     0          
O315     O      0.430900000000     0.000000000000     0.734400000000     0          
C316     C      0.224500000000     0.000000000000     0.918800000000     0          
H317     H      0.244000000000     0.000000000000     0.864000000000     0          
C318     C      0.167600000000     0.000000000000     0.920900000000     0          
O319     O      0.338900000000     0.000000000000     0.897300000000     0          
H320     H      0.147700000000     0.000000000000     0.863900000000     0          
Zr321    Zr     0.572970000000     0.000000000000     0.882940000000     0          
O322     O      0.569100000000     0.000000000000     0.734400000000     0          
C323     C      0.775500000000     0.000000000000     0.918800000000     0          
H324     H      0.756000000000     0.000000000000     0.864000000000     0          
C325     C      0.832400000000     0.000000000000     0.920900000000     0          
C326     C      0.863100000000     0.000000000000     0.834200000000     0          
O327     O      0.661100000000     0.000000000000     0.897300000000     0          
H328     H      0.837500000000     0.000000000000     0.785700000000     0          
O329     O      0.049500000000     0.500000000000     0.619700000000     0          
O330     O      0.950500000000     0.500000000000     0.619700000000     0          
O331     O      0.500000000000     0.049500000000     0.119700000000     0          
O332     O      0.500000000000     0.950500000000     0.119700000000     0          
O333     O      0.950500000000     0.500000000000     0.380300000000     0          
O334     O      0.049500000000     0.500000000000     0.380300000000     0          
O335     O      0.500000000000     0.049500000000     0.880300000000     0          
O336     O      0.500000000000     0.950500000000     0.880300000000     0          
O337     O      0.949900000000     0.428100000000     0.500000000000     0          
O338     O      0.050100000000     0.571900000000     0.500000000000     0          
O339     O      0.571900000000     0.949900000000     0.000000000000     0          
O340     O      0.428100000000     0.050100000000     0.000000000000     0          
O341     O      0.050100000000     0.428100000000     0.500000000000     0          
O342     O      0.949900000000     0.571900000000     0.500000000000     0          
O343     O      0.428100000000     0.949900000000     0.000000000000     0          
O344     O      0.571900000000     0.050100000000     0.000000000000     0          
C345     C      0.000000000000     0.314500000000     0.500000000000     0          
C346     C      0.000000000000     0.253400000000     0.500000000000     0          
C347     C      0.000000000000     0.138500000000     0.500000000000     0          
C348     C      0.000000000000     0.077600000000     0.500000000000     0          
C349     C      0.000000000000     0.028700000000     0.500000000000     0          
C350     C      0.000000000000     0.685500000000     0.500000000000     0          
C351     C      0.000000000000     0.746600000000     0.500000000000     0          
C352     C      0.000000000000     0.861500000000     0.500000000000     0          
C353     C      0.000000000000     0.922400000000     0.500000000000     0          
C354     C      0.000000000000     0.971300000000     0.500000000000     0          
C355     C      0.685500000000     0.000000000000     0.000000000000     0          
C356     C      0.746600000000     0.000000000000     0.000000000000     0          
C357     C      0.861500000000     0.000000000000     0.000000000000     0          
C358     C      0.922400000000     0.000000000000     0.000000000000     0          
C359     C      0.971300000000     0.000000000000     0.000000000000     0          
C360     C      0.314500000000     0.000000000000     0.000000000000     0          
C361     C      0.253400000000     0.000000000000     0.000000000000     0          
C362     C      0.138500000000     0.000000000000     0.000000000000     0          
C363     C      0.077600000000     0.000000000000     0.000000000000     0          
C364     C      0.028700000000     0.000000000000     0.000000000000     0          


