data_ERANIW

_audit_creation_method RASPA-1.0
_audit_creation_date 2020-11-2
_audit_author_name 'Rocio Bueno-Perez'

_cell_length_a    24.288
_cell_length_b    24.288
_cell_length_c    14.859
_cell_angle_alpha 90
_cell_angle_beta  90
_cell_angle_gamma 90
_cell_volume      8765.43

_symmetry_cell_setting          triclinic
_symmetry_space_group_name_Hall 'P 1'
_symmetry_space_group_name_H-M  'P 1'
_symmetry_Int_Tables_number     1

_symmetry_equiv_pos_as_xyz 'x,y,z'

loop_
_atom_site_label
_atom_site_type_symbol
_atom_site_fract_x
_atom_site_fract_y
_atom_site_fract_z
_atom_site_charge
O1       O      0.148000000000     0.554800000000     0.588600000000     0          
O2       O      0.080600000000     0.603300000000     0.665800000000     0          
C3       C      0.131700000000     0.592000000000     0.638700000000     0          
C4       C      0.156400000000     0.677200000000     0.730500000000     0          
H5       H      0.119200000000     0.681500000000     0.749000000000     0          
C6       C      0.171000000000     0.633900000000     0.674100000000     0          
C7       C      0.250600000000     0.707800000000     0.732900000000     0          
C8       C      0.196200000000     0.714200000000     0.759900000000     0          
H9       H      0.186200000000     0.743700000000     0.798400000000     0          
C10      C      0.225400000000     0.627600000000     0.647100000000     0          
H11      H      0.235400000000     0.598000000000     0.608600000000     0          
C12      C      0.265200000000     0.664500000000     0.676500000000     0          
C13      C      0.324200000000     0.657500000000     0.647000000000     0          
H14      H      0.325300000000     0.637800000000     0.589500000000     0          
H15      H      0.344400000000     0.636300000000     0.692500000000     0          
H16      H      0.341400000000     0.693800000000     0.640000000000     0          
O17      O      0.852000000000     0.445200000000     0.588600000000     0          
O18      O      0.919400000000     0.396700000000     0.665800000000     0          
C19      C      0.868300000000     0.408000000000     0.638700000000     0          
C20      C      0.843600000000     0.322800000000     0.730500000000     0          
H21      H      0.880800000000     0.318500000000     0.749000000000     0          
C22      C      0.829000000000     0.366100000000     0.674100000000     0          
C23      C      0.749400000000     0.292200000000     0.732900000000     0          
C24      C      0.803800000000     0.285800000000     0.759900000000     0          
H25      H      0.813800000000     0.256300000000     0.798400000000     0          
C26      C      0.774600000000     0.372400000000     0.647100000000     0          
H27      H      0.764600000000     0.402000000000     0.608600000000     0          
C28      C      0.734800000000     0.335500000000     0.676500000000     0          
C29      C      0.675800000000     0.342500000000     0.647000000000     0          
H30      H      0.674700000000     0.362200000000     0.589500000000     0          
H31      H      0.655600000000     0.363700000000     0.692500000000     0          
H32      H      0.658600000000     0.306200000000     0.640000000000     0          
H33      H      0.032300000000     0.146200000000     0.701800000000     0          
O34      O      0.445200000000     0.148000000000     0.088600000000     0          
O35      O      0.396700000000     0.080600000000     0.165800000000     0          
C36      C      0.408000000000     0.131700000000     0.138700000000     0          
C37      C      0.322800000000     0.156400000000     0.230500000000     0          
H38      H      0.318500000000     0.119200000000     0.249000000000     0          
C39      C      0.366100000000     0.171000000000     0.174100000000     0          
C40      C      0.292200000000     0.250600000000     0.232900000000     0          
C41      C      0.285800000000     0.196200000000     0.259900000000     0          
H42      H      0.256300000000     0.186200000000     0.298400000000     0          
C43      C      0.372400000000     0.225400000000     0.147100000000     0          
H44      H      0.402000000000     0.235400000000     0.108600000000     0          
C45      C      0.335500000000     0.265200000000     0.176500000000     0          
C46      C      0.342500000000     0.324200000000     0.147000000000     0          
H47      H      0.362200000000     0.325300000000     0.089500000000     0          
H48      H      0.363700000000     0.344400000000     0.192500000000     0          
H49      H      0.306200000000     0.341400000000     0.140000000000     0          
H50      H      0.146200000000     0.967700000000     0.201800000000     0          
O51      O      0.554800000000     0.852000000000     0.088600000000     0          
O52      O      0.603300000000     0.919400000000     0.165800000000     0          
C53      C      0.592000000000     0.868300000000     0.138700000000     0          
C54      C      0.677200000000     0.843600000000     0.230500000000     0          
H55      H      0.681500000000     0.880800000000     0.249000000000     0          
C56      C      0.633900000000     0.829000000000     0.174100000000     0          
C57      C      0.707800000000     0.749400000000     0.232900000000     0          
C58      C      0.714200000000     0.803800000000     0.259900000000     0          
H59      H      0.743700000000     0.813800000000     0.298400000000     0          
C60      C      0.627600000000     0.774600000000     0.147100000000     0          
H61      H      0.598000000000     0.764600000000     0.108600000000     0          
C62      C      0.664500000000     0.734800000000     0.176500000000     0          
C63      C      0.657500000000     0.675800000000     0.147000000000     0          
H64      H      0.637800000000     0.674700000000     0.089500000000     0          
H65      H      0.636300000000     0.655600000000     0.192500000000     0          
H66      H      0.693800000000     0.658600000000     0.140000000000     0          
O67      O      0.852000000000     0.554800000000     0.411400000000     0          
O68      O      0.919400000000     0.603300000000     0.334200000000     0          
C69      C      0.868300000000     0.592000000000     0.361300000000     0          
C70      C      0.843600000000     0.677200000000     0.269500000000     0          
H71      H      0.880800000000     0.681500000000     0.251000000000     0          
C72      C      0.829000000000     0.633900000000     0.325900000000     0          
C73      C      0.749400000000     0.707800000000     0.267100000000     0          
C74      C      0.803800000000     0.714200000000     0.240100000000     0          
H75      H      0.813800000000     0.743700000000     0.201600000000     0          
C76      C      0.774600000000     0.627600000000     0.352900000000     0          
H77      H      0.764600000000     0.598000000000     0.391400000000     0          
C78      C      0.734800000000     0.664500000000     0.323500000000     0          
C79      C      0.675800000000     0.657500000000     0.353000000000     0          
H80      H      0.674700000000     0.637800000000     0.410500000000     0          
H81      H      0.655600000000     0.636300000000     0.307500000000     0          
H82      H      0.658600000000     0.693800000000     0.360000000000     0          
H83      H      0.032300000000     0.853800000000     0.298200000000     0          
O84      O      0.148000000000     0.445200000000     0.411400000000     0          
O85      O      0.080600000000     0.396700000000     0.334200000000     0          
C86      C      0.131700000000     0.408000000000     0.361300000000     0          
C87      C      0.156400000000     0.322800000000     0.269500000000     0          
H88      H      0.119200000000     0.318500000000     0.251000000000     0          
C89      C      0.171000000000     0.366100000000     0.325900000000     0          
C90      C      0.250600000000     0.292200000000     0.267100000000     0          
C91      C      0.196200000000     0.285800000000     0.240100000000     0          
H92      H      0.186200000000     0.256300000000     0.201600000000     0          
C93      C      0.225400000000     0.372400000000     0.352900000000     0          
H94      H      0.235400000000     0.402000000000     0.391400000000     0          
C95      C      0.265200000000     0.335500000000     0.323500000000     0          
C96      C      0.324200000000     0.342500000000     0.353000000000     0          
H97      H      0.325300000000     0.362200000000     0.410500000000     0          
H98      H      0.344400000000     0.363700000000     0.307500000000     0          
H99      H      0.341400000000     0.306200000000     0.360000000000     0          
O100     O      0.554800000000     0.148000000000     0.911400000000     0          
O101     O      0.603300000000     0.080600000000     0.834200000000     0          
C102     C      0.592000000000     0.131700000000     0.861300000000     0          
C103     C      0.677200000000     0.156400000000     0.769500000000     0          
H104     H      0.681500000000     0.119200000000     0.751000000000     0          
C105     C      0.633900000000     0.171000000000     0.825900000000     0          
C106     C      0.707800000000     0.250600000000     0.767100000000     0          
C107     C      0.714200000000     0.196200000000     0.740100000000     0          
H108     H      0.743700000000     0.186200000000     0.701600000000     0          
C109     C      0.627600000000     0.225400000000     0.852900000000     0          
H110     H      0.598000000000     0.235400000000     0.891400000000     0          
C111     C      0.664500000000     0.265200000000     0.823500000000     0          
C112     C      0.657500000000     0.324200000000     0.853000000000     0          
H113     H      0.637800000000     0.325300000000     0.910500000000     0          
H114     H      0.636300000000     0.344400000000     0.807500000000     0          
H115     H      0.693800000000     0.341400000000     0.860000000000     0          
H116     H      0.853800000000     0.967700000000     0.798200000000     0          
O117     O      0.445200000000     0.852000000000     0.911400000000     0          
O118     O      0.396700000000     0.919400000000     0.834200000000     0          
C119     C      0.408000000000     0.868300000000     0.861300000000     0          
C120     C      0.322800000000     0.843600000000     0.769500000000     0          
H121     H      0.318500000000     0.880800000000     0.751000000000     0          
C122     C      0.366100000000     0.829000000000     0.825900000000     0          
C123     C      0.292200000000     0.749400000000     0.767100000000     0          
C124     C      0.285800000000     0.803800000000     0.740100000000     0          
H125     H      0.256300000000     0.813800000000     0.701600000000     0          
C126     C      0.372400000000     0.774600000000     0.852900000000     0          
H127     H      0.402000000000     0.764600000000     0.891400000000     0          
C128     C      0.335500000000     0.734800000000     0.823500000000     0          
C129     C      0.342500000000     0.675800000000     0.853000000000     0          
H130     H      0.362200000000     0.674700000000     0.910500000000     0          
H131     H      0.363700000000     0.655600000000     0.807500000000     0          
H132     H      0.306200000000     0.658600000000     0.860000000000     0          
O133     O      0.852000000000     0.445200000000     0.411400000000     0          
O134     O      0.919400000000     0.396700000000     0.334200000000     0          
C135     C      0.868300000000     0.408000000000     0.361300000000     0          
C136     C      0.843600000000     0.322800000000     0.269500000000     0          
H137     H      0.880800000000     0.318500000000     0.251000000000     0          
C138     C      0.829000000000     0.366100000000     0.325900000000     0          
C139     C      0.749400000000     0.292200000000     0.267100000000     0          
C140     C      0.803800000000     0.285800000000     0.240100000000     0          
H141     H      0.813800000000     0.256300000000     0.201600000000     0          
C142     C      0.774600000000     0.372400000000     0.352900000000     0          
H143     H      0.764600000000     0.402000000000     0.391400000000     0          
C144     C      0.734800000000     0.335500000000     0.323500000000     0          
C145     C      0.675800000000     0.342500000000     0.353000000000     0          
H146     H      0.674700000000     0.362200000000     0.410500000000     0          
H147     H      0.655600000000     0.363700000000     0.307500000000     0          
H148     H      0.658600000000     0.306200000000     0.360000000000     0          
O149     O      0.148000000000     0.554800000000     0.411400000000     0          
O150     O      0.080600000000     0.603300000000     0.334200000000     0          
C151     C      0.131700000000     0.592000000000     0.361300000000     0          
C152     C      0.156400000000     0.677200000000     0.269500000000     0          
H153     H      0.119200000000     0.681500000000     0.251000000000     0          
C154     C      0.171000000000     0.633900000000     0.325900000000     0          
C155     C      0.250600000000     0.707800000000     0.267100000000     0          
C156     C      0.196200000000     0.714200000000     0.240100000000     0          
H157     H      0.186200000000     0.743700000000     0.201600000000     0          
C158     C      0.225400000000     0.627600000000     0.352900000000     0          
H159     H      0.235400000000     0.598000000000     0.391400000000     0          
C160     C      0.265200000000     0.664500000000     0.323500000000     0          
C161     C      0.324200000000     0.657500000000     0.353000000000     0          
H162     H      0.325300000000     0.637800000000     0.410500000000     0          
H163     H      0.344400000000     0.636300000000     0.307500000000     0          
H164     H      0.341400000000     0.693800000000     0.360000000000     0          
H165     H      0.967700000000     0.853800000000     0.298200000000     0          
O166     O      0.554800000000     0.852000000000     0.911400000000     0          
O167     O      0.603300000000     0.919400000000     0.834200000000     0          
C168     C      0.592000000000     0.868300000000     0.861300000000     0          
C169     C      0.677200000000     0.843600000000     0.769500000000     0          
H170     H      0.681500000000     0.880800000000     0.751000000000     0          
C171     C      0.633900000000     0.829000000000     0.825900000000     0          
C172     C      0.707800000000     0.749400000000     0.767100000000     0          
C173     C      0.714200000000     0.803800000000     0.740100000000     0          
H174     H      0.743700000000     0.813800000000     0.701600000000     0          
C175     C      0.627600000000     0.774600000000     0.852900000000     0          
H176     H      0.598000000000     0.764600000000     0.891400000000     0          
C177     C      0.664500000000     0.734800000000     0.823500000000     0          
C178     C      0.657500000000     0.675800000000     0.853000000000     0          
H179     H      0.637800000000     0.674700000000     0.910500000000     0          
H180     H      0.636300000000     0.655600000000     0.807500000000     0          
H181     H      0.693800000000     0.658600000000     0.860000000000     0          
H182     H      0.853800000000     0.032300000000     0.798200000000     0          
O183     O      0.445200000000     0.148000000000     0.911400000000     0          
O184     O      0.396700000000     0.080600000000     0.834200000000     0          
C185     C      0.408000000000     0.131700000000     0.861300000000     0          
C186     C      0.322800000000     0.156400000000     0.769500000000     0          
H187     H      0.318500000000     0.119200000000     0.751000000000     0          
C188     C      0.366100000000     0.171000000000     0.825900000000     0          
C189     C      0.292200000000     0.250600000000     0.767100000000     0          
C190     C      0.285800000000     0.196200000000     0.740100000000     0          
H191     H      0.256300000000     0.186200000000     0.701600000000     0          
C192     C      0.372400000000     0.225400000000     0.852900000000     0          
H193     H      0.402000000000     0.235400000000     0.891400000000     0          
C194     C      0.335500000000     0.265200000000     0.823500000000     0          
C195     C      0.342500000000     0.324200000000     0.853000000000     0          
H196     H      0.362200000000     0.325300000000     0.910500000000     0          
H197     H      0.363700000000     0.344400000000     0.807500000000     0          
H198     H      0.306200000000     0.341400000000     0.860000000000     0          
O199     O      0.148000000000     0.445200000000     0.588600000000     0          
O200     O      0.080600000000     0.396700000000     0.665800000000     0          
C201     C      0.131700000000     0.408000000000     0.638700000000     0          
C202     C      0.156400000000     0.322800000000     0.730500000000     0          
H203     H      0.119200000000     0.318500000000     0.749000000000     0          
C204     C      0.171000000000     0.366100000000     0.674100000000     0          
C205     C      0.250600000000     0.292200000000     0.732900000000     0          
C206     C      0.196200000000     0.285800000000     0.759900000000     0          
H207     H      0.186200000000     0.256300000000     0.798400000000     0          
C208     C      0.225400000000     0.372400000000     0.647100000000     0          
H209     H      0.235400000000     0.402000000000     0.608600000000     0          
C210     C      0.265200000000     0.335500000000     0.676500000000     0          
C211     C      0.324200000000     0.342500000000     0.647000000000     0          
H212     H      0.325300000000     0.362200000000     0.589500000000     0          
H213     H      0.344400000000     0.363700000000     0.692500000000     0          
H214     H      0.341400000000     0.306200000000     0.640000000000     0          
H215     H      0.967700000000     0.146200000000     0.701800000000     0          
O216     O      0.852000000000     0.554800000000     0.588600000000     0          
O217     O      0.919400000000     0.603300000000     0.665800000000     0          
C218     C      0.868300000000     0.592000000000     0.638700000000     0          
C219     C      0.843600000000     0.677200000000     0.730500000000     0          
H220     H      0.880800000000     0.681500000000     0.749000000000     0          
C221     C      0.829000000000     0.633900000000     0.674100000000     0          
C222     C      0.749400000000     0.707800000000     0.732900000000     0          
C223     C      0.803800000000     0.714200000000     0.759900000000     0          
H224     H      0.813800000000     0.743700000000     0.798400000000     0          
C225     C      0.774600000000     0.627600000000     0.647100000000     0          
H226     H      0.764600000000     0.598000000000     0.608600000000     0          
C227     C      0.734800000000     0.664500000000     0.676500000000     0          
C228     C      0.675800000000     0.657500000000     0.647000000000     0          
H229     H      0.674700000000     0.637800000000     0.589500000000     0          
H230     H      0.655600000000     0.636300000000     0.692500000000     0          
H231     H      0.658600000000     0.693800000000     0.640000000000     0          
O232     O      0.445200000000     0.852000000000     0.088600000000     0          
O233     O      0.396700000000     0.919400000000     0.165800000000     0          
C234     C      0.408000000000     0.868300000000     0.138700000000     0          
C235     C      0.322800000000     0.843600000000     0.230500000000     0          
H236     H      0.318500000000     0.880800000000     0.249000000000     0          
C237     C      0.366100000000     0.829000000000     0.174100000000     0          
C238     C      0.292200000000     0.749400000000     0.232900000000     0          
C239     C      0.285800000000     0.803800000000     0.259900000000     0          
H240     H      0.256300000000     0.813800000000     0.298400000000     0          
C241     C      0.372400000000     0.774600000000     0.147100000000     0          
H242     H      0.402000000000     0.764600000000     0.108600000000     0          
C243     C      0.335500000000     0.734800000000     0.176500000000     0          
C244     C      0.342500000000     0.675800000000     0.147000000000     0          
H245     H      0.362200000000     0.674700000000     0.089500000000     0          
H246     H      0.363700000000     0.655600000000     0.192500000000     0          
H247     H      0.306200000000     0.658600000000     0.140000000000     0          
H248     H      0.146200000000     0.032300000000     0.201800000000     0          
O249     O      0.554800000000     0.148000000000     0.088600000000     0          
O250     O      0.603300000000     0.080600000000     0.165800000000     0          
C251     C      0.592000000000     0.131700000000     0.138700000000     0          
C252     C      0.677200000000     0.156400000000     0.230500000000     0          
H253     H      0.681500000000     0.119200000000     0.249000000000     0          
C254     C      0.633900000000     0.171000000000     0.174100000000     0          
C255     C      0.707800000000     0.250600000000     0.232900000000     0          
C256     C      0.714200000000     0.196200000000     0.259900000000     0          
H257     H      0.743700000000     0.186200000000     0.298400000000     0          
C258     C      0.627600000000     0.225400000000     0.147100000000     0          
H259     H      0.598000000000     0.235400000000     0.108600000000     0          
C260     C      0.664500000000     0.265200000000     0.176500000000     0          
C261     C      0.657500000000     0.324200000000     0.147000000000     0          
H262     H      0.637800000000     0.325300000000     0.089500000000     0          
H263     H      0.636300000000     0.344400000000     0.192500000000     0          
H264     H      0.693800000000     0.341400000000     0.140000000000     0          
Zr265    Zr     0.101330000000     0.500000000000     0.500000000000     0          
Zr266    Zr     0.898670000000     0.500000000000     0.500000000000     0          
Zr267    Zr     0.500000000000     0.101330000000     0.000000000000     0          
Zr268    Zr     0.500000000000     0.898670000000     0.000000000000     0          
Zr269    Zr     0.000000000000     0.572320000000     0.618210000000     0          
O270     O      0.000000000000     0.549600000000     0.774300000000     0          
C271     C      0.000000000000     0.549570000000     0.953210000000     0          
H272     H      0.000000000000     0.583400000000     0.921300000000     0          
C273     C      0.000000000000     0.773900000000     0.581030000000     0          
H274     H      0.000000000000     0.754300000000     0.636400000000     0          
C275     C      0.000000000000     0.831100000000     0.581030000000     0          
O276     O      0.000000000000     0.661200000000     0.599400000000     0          
H277     H      0.000000000000     0.850900000000     0.637000000000     0          
Zr278    Zr     0.000000000000     0.427680000000     0.618210000000     0          
O279     O      0.000000000000     0.450400000000     0.774300000000     0          
C280     C      0.000000000000     0.450430000000     0.953210000000     0          
H281     H      0.000000000000     0.416600000000     0.921300000000     0          
C282     C      0.000000000000     0.226100000000     0.581030000000     0          
H283     H      0.000000000000     0.245700000000     0.636400000000     0          
C284     C      0.000000000000     0.168900000000     0.581030000000     0          
C285     C      0.000000000000     0.136800000000     0.667800000000     0          
H286     H      0.000000000000     0.098000000000     0.655400000000     0          
O287     O      0.000000000000     0.338800000000     0.599400000000     0          
Zr288    Zr     0.427680000000     0.000000000000     0.118210000000     0          
O289     O      0.450400000000     0.000000000000     0.274300000000     0          
C290     C      0.450430000000     0.000000000000     0.453210000000     0          
H291     H      0.416600000000     0.000000000000     0.421300000000     0          
C292     C      0.226100000000     0.000000000000     0.081030000000     0          
H293     H      0.245700000000     0.000000000000     0.136400000000     0          
C294     C      0.168900000000     0.000000000000     0.081030000000     0          
C295     C      0.136800000000     0.000000000000     0.167800000000     0          
H296     H      0.098000000000     0.000000000000     0.155400000000     0          
O297     O      0.338800000000     0.000000000000     0.099400000000     0          
Zr298    Zr     0.572320000000     0.000000000000     0.118210000000     0          
O299     O      0.549600000000     0.000000000000     0.274300000000     0          
C300     C      0.549570000000     0.000000000000     0.453210000000     0          
H301     H      0.583400000000     0.000000000000     0.421300000000     0          
C302     C      0.773900000000     0.000000000000     0.081030000000     0          
H303     H      0.754300000000     0.000000000000     0.136400000000     0          
C304     C      0.831100000000     0.000000000000     0.081030000000     0          
O305     O      0.661200000000     0.000000000000     0.099400000000     0          
H306     H      0.850900000000     0.000000000000     0.137000000000     0          
Zr307    Zr     0.000000000000     0.572320000000     0.381790000000     0          
O308     O      0.000000000000     0.549600000000     0.225700000000     0          
C309     C      0.000000000000     0.549570000000     0.046790000000     0          
H310     H      0.000000000000     0.583400000000     0.078700000000     0          
C311     C      0.000000000000     0.773900000000     0.418970000000     0          
H312     H      0.000000000000     0.754300000000     0.363600000000     0          
C313     C      0.000000000000     0.831100000000     0.418970000000     0          
C314     C      0.000000000000     0.863200000000     0.332200000000     0          
H315     H      0.000000000000     0.902000000000     0.344600000000     0          
O316     O      0.000000000000     0.661200000000     0.400600000000     0          
Zr317    Zr     0.000000000000     0.427680000000     0.381790000000     0          
O318     O      0.000000000000     0.450400000000     0.225700000000     0          
C319     C      0.000000000000     0.450430000000     0.046790000000     0          
H320     H      0.000000000000     0.416600000000     0.078700000000     0          
C321     C      0.000000000000     0.226100000000     0.418970000000     0          
H322     H      0.000000000000     0.245700000000     0.363600000000     0          
C323     C      0.000000000000     0.168900000000     0.418970000000     0          
O324     O      0.000000000000     0.338800000000     0.400600000000     0          
H325     H      0.000000000000     0.149100000000     0.363000000000     0          
Zr326    Zr     0.572320000000     0.000000000000     0.881790000000     0          
O327     O      0.549600000000     0.000000000000     0.725700000000     0          
C328     C      0.549570000000     0.000000000000     0.546790000000     0          
H329     H      0.583400000000     0.000000000000     0.578700000000     0          
C330     C      0.773900000000     0.000000000000     0.918970000000     0          
H331     H      0.754300000000     0.000000000000     0.863600000000     0          
C332     C      0.831100000000     0.000000000000     0.918970000000     0          
C333     C      0.863200000000     0.000000000000     0.832200000000     0          
H334     H      0.902000000000     0.000000000000     0.844600000000     0          
O335     O      0.661200000000     0.000000000000     0.900600000000     0          
Zr336    Zr     0.427680000000     0.000000000000     0.881790000000     0          
O337     O      0.450400000000     0.000000000000     0.725700000000     0          
C338     C      0.450430000000     0.000000000000     0.546790000000     0          
H339     H      0.416600000000     0.000000000000     0.578700000000     0          
C340     C      0.226100000000     0.000000000000     0.918970000000     0          
H341     H      0.245700000000     0.000000000000     0.863600000000     0          
C342     C      0.168900000000     0.000000000000     0.918970000000     0          
O343     O      0.338800000000     0.000000000000     0.900600000000     0          
H344     H      0.149100000000     0.000000000000     0.863000000000     0          
O345     O      0.050200000000     0.500000000000     0.382000000000     0          
O346     O      0.949800000000     0.500000000000     0.382000000000     0          
O347     O      0.500000000000     0.050200000000     0.882000000000     0          
O348     O      0.500000000000     0.949800000000     0.882000000000     0          
O349     O      0.949800000000     0.500000000000     0.618000000000     0          
O350     O      0.050200000000     0.500000000000     0.618000000000     0          
O351     O      0.500000000000     0.050200000000     0.118000000000     0          
O352     O      0.500000000000     0.949800000000     0.118000000000     0          
O353     O      0.049900000000     0.428900000000     0.500000000000     0          
O354     O      0.950100000000     0.571100000000     0.500000000000     0          
O355     O      0.571100000000     0.049900000000     0.000000000000     0          
O356     O      0.428900000000     0.950100000000     0.000000000000     0          
O357     O      0.950100000000     0.428900000000     0.500000000000     0          
O358     O      0.049900000000     0.571100000000     0.500000000000     0          
O359     O      0.428900000000     0.049900000000     0.000000000000     0          
O360     O      0.571100000000     0.950100000000     0.000000000000     0          
C361     C      0.000000000000     0.500000000000     0.802800000000     0          
C362     C      0.000000000000     0.500000000000     0.906350000000     0          
C363     C      0.500000000000     0.000000000000     0.302800000000     0          
C364     C      0.500000000000     0.000000000000     0.406350000000     0          
C365     C      0.000000000000     0.500000000000     0.197200000000     0          
C366     C      0.000000000000     0.500000000000     0.093650000000     0          
C367     C      0.500000000000     0.000000000000     0.697200000000     0          
C368     C      0.500000000000     0.000000000000     0.593650000000     0          
C369     C      0.000000000000     0.682600000000     0.500000000000     0          
C370     C      0.000000000000     0.745300000000     0.500000000000     0          
C371     C      0.000000000000     0.859700000000     0.500000000000     0          
C372     C      0.000000000000     0.920900000000     0.500000000000     0          
C373     C      0.000000000000     0.969900000000     0.500000000000     0          
C374     C      0.000000000000     0.317400000000     0.500000000000     0          
C375     C      0.000000000000     0.254700000000     0.500000000000     0          
C376     C      0.000000000000     0.140300000000     0.500000000000     0          
C377     C      0.000000000000     0.079100000000     0.500000000000     0          
C378     C      0.000000000000     0.030100000000     0.500000000000     0          
C379     C      0.317400000000     0.000000000000     0.000000000000     0          
C380     C      0.254700000000     0.000000000000     0.000000000000     0          
C381     C      0.140300000000     0.000000000000     0.000000000000     0          
C382     C      0.079100000000     0.000000000000     0.000000000000     0          
C383     C      0.030100000000     0.000000000000     0.000000000000     0          
C384     C      0.682600000000     0.000000000000     0.000000000000     0          
C385     C      0.745300000000     0.000000000000     0.000000000000     0          
C386     C      0.859700000000     0.000000000000     0.000000000000     0          
C387     C      0.920900000000     0.000000000000     0.000000000000     0          
C388     C      0.969900000000     0.000000000000     0.000000000000     0          


