data_ERANUI

_audit_creation_method RASPA-1.0
_audit_creation_date 2020-11-2
_audit_author_name 'Rocio Bueno-Perez'

_cell_length_a    23.9
_cell_length_b    23.9
_cell_length_c    16.817
_cell_angle_alpha 90
_cell_angle_beta  90
_cell_angle_gamma 90
_cell_volume      9606.04

_symmetry_cell_setting          triclinic
_symmetry_space_group_name_Hall 'P 1'
_symmetry_space_group_name_H-M  'P 1'
_symmetry_Int_Tables_number     1

_symmetry_equiv_pos_as_xyz 'x,y,z'

loop_
_atom_site_label
_atom_site_type_symbol
_atom_site_fract_x
_atom_site_fract_y
_atom_site_fract_z
_atom_site_charge
O1       O      0.150800000000     0.440900000000     0.081200000000     0          
O2       O      0.080100000000     0.390500000000     0.150300000000     0          
C3       C      0.129500000000     0.402900000000     0.126200000000     0          
C4       C      0.174200000000     0.366200000000     0.162700000000     0          
C5       C      0.159800000000     0.329700000000     0.222600000000     0          
H6       H      0.122000000000     0.328000000000     0.239800000000     0          
C7       C      0.199000000000     0.295200000000     0.258200000000     0          
H8       H      0.187900000000     0.270400000000     0.299500000000     0          
C9       C      0.254800000000     0.296600000000     0.233800000000     0          
C10      C      0.269800000000     0.333400000000     0.173100000000     0          
C11      C      0.229700000000     0.367400000000     0.138900000000     0          
H12      H      0.240500000000     0.392300000000     0.097700000000     0          
C13      C      0.330000000000     0.336200000000     0.145600000000     0          
H14      H      0.333500000000     0.363900000000     0.102900000000     0          
H15      H      0.341600000000     0.299400000000     0.125800000000     0          
H16      H      0.354000000000     0.347100000000     0.190300000000     0          
C17      C      0.028600000000     0.225400000000     0.071510000000     0          
C18      C      0.044600000000     0.169400000000     0.071580000000     0          
H19      H      0.052100000000     0.150900000000     0.120400000000     0          
H20      H      0.023600000000     0.244800000000     0.121000000000     0          
O21      O      0.849200000000     0.559100000000     0.081200000000     0          
O22      O      0.919900000000     0.609500000000     0.150300000000     0          
C23      C      0.870500000000     0.597100000000     0.126200000000     0          
C24      C      0.825800000000     0.633800000000     0.162700000000     0          
C25      C      0.840200000000     0.670300000000     0.222600000000     0          
H26      H      0.878000000000     0.672000000000     0.239800000000     0          
C27      C      0.801000000000     0.704800000000     0.258200000000     0          
H28      H      0.812100000000     0.729600000000     0.299500000000     0          
C29      C      0.745200000000     0.703400000000     0.233800000000     0          
C30      C      0.730200000000     0.666600000000     0.173100000000     0          
C31      C      0.770300000000     0.632600000000     0.138900000000     0          
H32      H      0.759500000000     0.607700000000     0.097700000000     0          
C33      C      0.670000000000     0.663800000000     0.145600000000     0          
H34      H      0.666500000000     0.636100000000     0.102900000000     0          
H35      H      0.658400000000     0.700600000000     0.125800000000     0          
H36      H      0.646000000000     0.652900000000     0.190300000000     0          
C37      C      0.971400000000     0.774600000000     0.071510000000     0          
C38      C      0.955400000000     0.830600000000     0.071580000000     0          
H39      H      0.947900000000     0.849100000000     0.120400000000     0          
H40      H      0.976400000000     0.755200000000     0.121000000000     0          
O41      O      0.559100000000     0.150800000000     0.581200000000     0          
O42      O      0.609500000000     0.080100000000     0.650300000000     0          
C43      C      0.597100000000     0.129500000000     0.626200000000     0          
C44      C      0.633800000000     0.174200000000     0.662700000000     0          
C45      C      0.670300000000     0.159800000000     0.722600000000     0          
H46      H      0.672000000000     0.122000000000     0.739800000000     0          
C47      C      0.704800000000     0.199000000000     0.758200000000     0          
H48      H      0.729600000000     0.187900000000     0.799500000000     0          
C49      C      0.703400000000     0.254800000000     0.733800000000     0          
C50      C      0.666600000000     0.269800000000     0.673100000000     0          
C51      C      0.632600000000     0.229700000000     0.638900000000     0          
H52      H      0.607700000000     0.240500000000     0.597700000000     0          
C53      C      0.663800000000     0.330000000000     0.645600000000     0          
H54      H      0.636100000000     0.333500000000     0.602900000000     0          
H55      H      0.700600000000     0.341600000000     0.625800000000     0          
H56      H      0.652900000000     0.354000000000     0.690300000000     0          
C57      C      0.774600000000     0.028600000000     0.571510000000     0          
C58      C      0.830600000000     0.044600000000     0.571580000000     0          
C59      C      0.861200000000     0.052000000000     0.649100000000     0          
H60      H      0.834100000000     0.057800000000     0.692000000000     0          
H61      H      0.886200000000     0.084200000000     0.645500000000     0          
H62      H      0.883200000000     0.018100000000     0.660400000000     0          
H63      H      0.755200000000     0.023600000000     0.621000000000     0          
O64      O      0.440900000000     0.849200000000     0.581200000000     0          
O65      O      0.390500000000     0.919900000000     0.650300000000     0          
C66      C      0.402900000000     0.870500000000     0.626200000000     0          
C67      C      0.366200000000     0.825800000000     0.662700000000     0          
C68      C      0.329700000000     0.840200000000     0.722600000000     0          
H69      H      0.328000000000     0.878000000000     0.739800000000     0          
C70      C      0.295200000000     0.801000000000     0.758200000000     0          
H71      H      0.270400000000     0.812100000000     0.799500000000     0          
C72      C      0.296600000000     0.745200000000     0.733800000000     0          
C73      C      0.333400000000     0.730200000000     0.673100000000     0          
C74      C      0.367400000000     0.770300000000     0.638900000000     0          
H75      H      0.392300000000     0.759500000000     0.597700000000     0          
C76      C      0.336200000000     0.670000000000     0.645600000000     0          
H77      H      0.363900000000     0.666500000000     0.602900000000     0          
H78      H      0.299400000000     0.658400000000     0.625800000000     0          
H79      H      0.347100000000     0.646000000000     0.690300000000     0          
C80      C      0.225400000000     0.971400000000     0.571510000000     0          
C81      C      0.169400000000     0.955400000000     0.571580000000     0          
C82      C      0.138800000000     0.948000000000     0.649100000000     0          
H83      H      0.165900000000     0.942200000000     0.692000000000     0          
H84      H      0.113800000000     0.915800000000     0.645500000000     0          
H85      H      0.116800000000     0.981900000000     0.660400000000     0          
H86      H      0.244800000000     0.976400000000     0.621000000000     0          
O87      O      0.849200000000     0.440900000000     0.918800000000     0          
O88      O      0.919900000000     0.390500000000     0.849700000000     0          
C89      C      0.870500000000     0.402900000000     0.873800000000     0          
C90      C      0.825800000000     0.366200000000     0.837300000000     0          
C91      C      0.840200000000     0.329700000000     0.777400000000     0          
H92      H      0.878000000000     0.328000000000     0.760200000000     0          
C93      C      0.801000000000     0.295200000000     0.741800000000     0          
H94      H      0.812100000000     0.270400000000     0.700500000000     0          
C95      C      0.745200000000     0.296600000000     0.766200000000     0          
C96      C      0.730200000000     0.333400000000     0.826900000000     0          
C97      C      0.770300000000     0.367400000000     0.861100000000     0          
H98      H      0.759500000000     0.392300000000     0.902300000000     0          
C99      C      0.670000000000     0.336200000000     0.854400000000     0          
H100     H      0.666500000000     0.363900000000     0.897100000000     0          
H101     H      0.658400000000     0.299400000000     0.874200000000     0          
H102     H      0.646000000000     0.347100000000     0.809700000000     0          
C103     C      0.971400000000     0.225400000000     0.928490000000     0          
C104     C      0.955400000000     0.169400000000     0.928420000000     0          
H105     H      0.947900000000     0.150900000000     0.879600000000     0          
H106     H      0.976400000000     0.244800000000     0.879000000000     0          
O107     O      0.150800000000     0.559100000000     0.918800000000     0          
O108     O      0.080100000000     0.609500000000     0.849700000000     0          
C109     C      0.129500000000     0.597100000000     0.873800000000     0          
C110     C      0.174200000000     0.633800000000     0.837300000000     0          
C111     C      0.159800000000     0.670300000000     0.777400000000     0          
H112     H      0.122000000000     0.672000000000     0.760200000000     0          
C113     C      0.199000000000     0.704800000000     0.741800000000     0          
H114     H      0.187900000000     0.729600000000     0.700500000000     0          
C115     C      0.254800000000     0.703400000000     0.766200000000     0          
C116     C      0.269800000000     0.666600000000     0.826900000000     0          
C117     C      0.229700000000     0.632600000000     0.861100000000     0          
H118     H      0.240500000000     0.607700000000     0.902300000000     0          
C119     C      0.330000000000     0.663800000000     0.854400000000     0          
H120     H      0.333500000000     0.636100000000     0.897100000000     0          
H121     H      0.341600000000     0.700600000000     0.874200000000     0          
H122     H      0.354000000000     0.652900000000     0.809700000000     0          
C123     C      0.028600000000     0.774600000000     0.928490000000     0          
C124     C      0.044600000000     0.830600000000     0.928420000000     0          
H125     H      0.052100000000     0.849100000000     0.879600000000     0          
H126     H      0.023600000000     0.755200000000     0.879000000000     0          
O127     O      0.440900000000     0.150800000000     0.418800000000     0          
O128     O      0.390500000000     0.080100000000     0.349700000000     0          
C129     C      0.402900000000     0.129500000000     0.373800000000     0          
C130     C      0.366200000000     0.174200000000     0.337300000000     0          
C131     C      0.329700000000     0.159800000000     0.277400000000     0          
H132     H      0.328000000000     0.122000000000     0.260200000000     0          
C133     C      0.295200000000     0.199000000000     0.241800000000     0          
H134     H      0.270400000000     0.187900000000     0.200500000000     0          
C135     C      0.296600000000     0.254800000000     0.266200000000     0          
C136     C      0.333400000000     0.269800000000     0.326900000000     0          
C137     C      0.367400000000     0.229700000000     0.361100000000     0          
H138     H      0.392300000000     0.240500000000     0.402300000000     0          
C139     C      0.336200000000     0.330000000000     0.354400000000     0          
H140     H      0.363900000000     0.333500000000     0.397100000000     0          
H141     H      0.299400000000     0.341600000000     0.374200000000     0          
H142     H      0.347100000000     0.354000000000     0.309700000000     0          
C143     C      0.225400000000     0.028600000000     0.428490000000     0          
C144     C      0.169400000000     0.044600000000     0.428420000000     0          
C145     C      0.138800000000     0.052000000000     0.350900000000     0          
H146     H      0.165900000000     0.057800000000     0.308000000000     0          
H147     H      0.113800000000     0.084200000000     0.354500000000     0          
H148     H      0.116800000000     0.018100000000     0.339600000000     0          
H149     H      0.244800000000     0.023600000000     0.379000000000     0          
O150     O      0.559100000000     0.849200000000     0.418800000000     0          
O151     O      0.609500000000     0.919900000000     0.349700000000     0          
C152     C      0.597100000000     0.870500000000     0.373800000000     0          
C153     C      0.633800000000     0.825800000000     0.337300000000     0          
C154     C      0.670300000000     0.840200000000     0.277400000000     0          
H155     H      0.672000000000     0.878000000000     0.260200000000     0          
C156     C      0.704800000000     0.801000000000     0.241800000000     0          
H157     H      0.729600000000     0.812100000000     0.200500000000     0          
C158     C      0.703400000000     0.745200000000     0.266200000000     0          
C159     C      0.666600000000     0.730200000000     0.326900000000     0          
C160     C      0.632600000000     0.770300000000     0.361100000000     0          
H161     H      0.607700000000     0.759500000000     0.402300000000     0          
C162     C      0.663800000000     0.670000000000     0.354400000000     0          
H163     H      0.636100000000     0.666500000000     0.397100000000     0          
H164     H      0.700600000000     0.658400000000     0.374200000000     0          
H165     H      0.652900000000     0.646000000000     0.309700000000     0          
C166     C      0.774600000000     0.971400000000     0.428490000000     0          
C167     C      0.830600000000     0.955400000000     0.428420000000     0          
C168     C      0.861200000000     0.948000000000     0.350900000000     0          
H169     H      0.834100000000     0.942200000000     0.308000000000     0          
H170     H      0.886200000000     0.915800000000     0.354500000000     0          
H171     H      0.883200000000     0.981900000000     0.339600000000     0          
H172     H      0.755200000000     0.976400000000     0.379000000000     0          
O173     O      0.849200000000     0.559100000000     0.918800000000     0          
O174     O      0.919900000000     0.609500000000     0.849700000000     0          
C175     C      0.870500000000     0.597100000000     0.873800000000     0          
C176     C      0.825800000000     0.633800000000     0.837300000000     0          
C177     C      0.840200000000     0.670300000000     0.777400000000     0          
H178     H      0.878000000000     0.672000000000     0.760200000000     0          
C179     C      0.801000000000     0.704800000000     0.741800000000     0          
H180     H      0.812100000000     0.729600000000     0.700500000000     0          
C181     C      0.745200000000     0.703400000000     0.766200000000     0          
C182     C      0.730200000000     0.666600000000     0.826900000000     0          
C183     C      0.770300000000     0.632600000000     0.861100000000     0          
H184     H      0.759500000000     0.607700000000     0.902300000000     0          
C185     C      0.670000000000     0.663800000000     0.854400000000     0          
H186     H      0.666500000000     0.636100000000     0.897100000000     0          
H187     H      0.658400000000     0.700600000000     0.874200000000     0          
H188     H      0.646000000000     0.652900000000     0.809700000000     0          
C189     C      0.971400000000     0.774600000000     0.928490000000     0          
C190     C      0.955400000000     0.830600000000     0.928420000000     0          
C191     C      0.948000000000     0.861200000000     0.850900000000     0          
H192     H      0.942200000000     0.834100000000     0.808000000000     0          
H193     H      0.915800000000     0.886200000000     0.854500000000     0          
H194     H      0.981900000000     0.883200000000     0.839600000000     0          
H195     H      0.976400000000     0.755200000000     0.879000000000     0          
O196     O      0.150800000000     0.440900000000     0.918800000000     0          
O197     O      0.080100000000     0.390500000000     0.849700000000     0          
C198     C      0.129500000000     0.402900000000     0.873800000000     0          
C199     C      0.174200000000     0.366200000000     0.837300000000     0          
C200     C      0.159800000000     0.329700000000     0.777400000000     0          
H201     H      0.122000000000     0.328000000000     0.760200000000     0          
C202     C      0.199000000000     0.295200000000     0.741800000000     0          
H203     H      0.187900000000     0.270400000000     0.700500000000     0          
C204     C      0.254800000000     0.296600000000     0.766200000000     0          
C205     C      0.269800000000     0.333400000000     0.826900000000     0          
C206     C      0.229700000000     0.367400000000     0.861100000000     0          
H207     H      0.240500000000     0.392300000000     0.902300000000     0          
C208     C      0.330000000000     0.336200000000     0.854400000000     0          
H209     H      0.333500000000     0.363900000000     0.897100000000     0          
H210     H      0.341600000000     0.299400000000     0.874200000000     0          
H211     H      0.354000000000     0.347100000000     0.809700000000     0          
C212     C      0.028600000000     0.225400000000     0.928490000000     0          
C213     C      0.044600000000     0.169400000000     0.928420000000     0          
C214     C      0.052000000000     0.138800000000     0.850900000000     0          
H215     H      0.057800000000     0.165900000000     0.808000000000     0          
H216     H      0.084200000000     0.113800000000     0.854500000000     0          
H217     H      0.018100000000     0.116800000000     0.839600000000     0          
H218     H      0.023600000000     0.244800000000     0.879000000000     0          
O219     O      0.440900000000     0.849200000000     0.418800000000     0          
O220     O      0.390500000000     0.919900000000     0.349700000000     0          
C221     C      0.402900000000     0.870500000000     0.373800000000     0          
C222     C      0.366200000000     0.825800000000     0.337300000000     0          
C223     C      0.329700000000     0.840200000000     0.277400000000     0          
H224     H      0.328000000000     0.878000000000     0.260200000000     0          
C225     C      0.295200000000     0.801000000000     0.241800000000     0          
H226     H      0.270400000000     0.812100000000     0.200500000000     0          
C227     C      0.296600000000     0.745200000000     0.266200000000     0          
C228     C      0.333400000000     0.730200000000     0.326900000000     0          
C229     C      0.367400000000     0.770300000000     0.361100000000     0          
H230     H      0.392300000000     0.759500000000     0.402300000000     0          
C231     C      0.336200000000     0.670000000000     0.354400000000     0          
H232     H      0.363900000000     0.666500000000     0.397100000000     0          
H233     H      0.299400000000     0.658400000000     0.374200000000     0          
H234     H      0.347100000000     0.646000000000     0.309700000000     0          
C235     C      0.225400000000     0.971400000000     0.428490000000     0          
C236     C      0.169400000000     0.955400000000     0.428420000000     0          
H237     H      0.150900000000     0.947900000000     0.379600000000     0          
H238     H      0.244800000000     0.976400000000     0.379000000000     0          
O239     O      0.559100000000     0.150800000000     0.418800000000     0          
O240     O      0.609500000000     0.080100000000     0.349700000000     0          
C241     C      0.597100000000     0.129500000000     0.373800000000     0          
C242     C      0.633800000000     0.174200000000     0.337300000000     0          
C243     C      0.670300000000     0.159800000000     0.277400000000     0          
H244     H      0.672000000000     0.122000000000     0.260200000000     0          
C245     C      0.704800000000     0.199000000000     0.241800000000     0          
H246     H      0.729600000000     0.187900000000     0.200500000000     0          
C247     C      0.703400000000     0.254800000000     0.266200000000     0          
C248     C      0.666600000000     0.269800000000     0.326900000000     0          
C249     C      0.632600000000     0.229700000000     0.361100000000     0          
H250     H      0.607700000000     0.240500000000     0.402300000000     0          
C251     C      0.663800000000     0.330000000000     0.354400000000     0          
H252     H      0.636100000000     0.333500000000     0.397100000000     0          
H253     H      0.700600000000     0.341600000000     0.374200000000     0          
H254     H      0.652900000000     0.354000000000     0.309700000000     0          
C255     C      0.774600000000     0.028600000000     0.428490000000     0          
C256     C      0.830600000000     0.044600000000     0.428420000000     0          
H257     H      0.849100000000     0.052100000000     0.379600000000     0          
H258     H      0.755200000000     0.023600000000     0.379000000000     0          
O259     O      0.150800000000     0.559100000000     0.081200000000     0          
O260     O      0.080100000000     0.609500000000     0.150300000000     0          
C261     C      0.129500000000     0.597100000000     0.126200000000     0          
C262     C      0.174200000000     0.633800000000     0.162700000000     0          
C263     C      0.159800000000     0.670300000000     0.222600000000     0          
H264     H      0.122000000000     0.672000000000     0.239800000000     0          
C265     C      0.199000000000     0.704800000000     0.258200000000     0          
H266     H      0.187900000000     0.729600000000     0.299500000000     0          
C267     C      0.254800000000     0.703400000000     0.233800000000     0          
C268     C      0.269800000000     0.666600000000     0.173100000000     0          
C269     C      0.229700000000     0.632600000000     0.138900000000     0          
H270     H      0.240500000000     0.607700000000     0.097700000000     0          
C271     C      0.330000000000     0.663800000000     0.145600000000     0          
H272     H      0.333500000000     0.636100000000     0.102900000000     0          
H273     H      0.341600000000     0.700600000000     0.125800000000     0          
H274     H      0.354000000000     0.652900000000     0.190300000000     0          
C275     C      0.028600000000     0.774600000000     0.071510000000     0          
C276     C      0.044600000000     0.830600000000     0.071580000000     0          
C277     C      0.052000000000     0.861200000000     0.149100000000     0          
H278     H      0.057800000000     0.834100000000     0.192000000000     0          
H279     H      0.084200000000     0.886200000000     0.145500000000     0          
H280     H      0.018100000000     0.883200000000     0.160400000000     0          
H281     H      0.023600000000     0.755200000000     0.121000000000     0          
O282     O      0.849200000000     0.440900000000     0.081200000000     0          
O283     O      0.919900000000     0.390500000000     0.150300000000     0          
C284     C      0.870500000000     0.402900000000     0.126200000000     0          
C285     C      0.825800000000     0.366200000000     0.162700000000     0          
C286     C      0.840200000000     0.329700000000     0.222600000000     0          
H287     H      0.878000000000     0.328000000000     0.239800000000     0          
C288     C      0.801000000000     0.295200000000     0.258200000000     0          
H289     H      0.812100000000     0.270400000000     0.299500000000     0          
C290     C      0.745200000000     0.296600000000     0.233800000000     0          
C291     C      0.730200000000     0.333400000000     0.173100000000     0          
C292     C      0.770300000000     0.367400000000     0.138900000000     0          
H293     H      0.759500000000     0.392300000000     0.097700000000     0          
C294     C      0.670000000000     0.336200000000     0.145600000000     0          
H295     H      0.666500000000     0.363900000000     0.102900000000     0          
H296     H      0.658400000000     0.299400000000     0.125800000000     0          
H297     H      0.646000000000     0.347100000000     0.190300000000     0          
C298     C      0.971400000000     0.225400000000     0.071510000000     0          
C299     C      0.955400000000     0.169400000000     0.071580000000     0          
C300     C      0.948000000000     0.138800000000     0.149100000000     0          
H301     H      0.942200000000     0.165900000000     0.192000000000     0          
H302     H      0.915800000000     0.113800000000     0.145500000000     0          
H303     H      0.981900000000     0.116800000000     0.160400000000     0          
H304     H      0.976400000000     0.244800000000     0.121000000000     0          
O305     O      0.559100000000     0.849200000000     0.581200000000     0          
O306     O      0.609500000000     0.919900000000     0.650300000000     0          
C307     C      0.597100000000     0.870500000000     0.626200000000     0          
C308     C      0.633800000000     0.825800000000     0.662700000000     0          
C309     C      0.670300000000     0.840200000000     0.722600000000     0          
H310     H      0.672000000000     0.878000000000     0.739800000000     0          
C311     C      0.704800000000     0.801000000000     0.758200000000     0          
H312     H      0.729600000000     0.812100000000     0.799500000000     0          
C313     C      0.703400000000     0.745200000000     0.733800000000     0          
C314     C      0.666600000000     0.730200000000     0.673100000000     0          
C315     C      0.632600000000     0.770300000000     0.638900000000     0          
H316     H      0.607700000000     0.759500000000     0.597700000000     0          
C317     C      0.663800000000     0.670000000000     0.645600000000     0          
H318     H      0.636100000000     0.666500000000     0.602900000000     0          
H319     H      0.700600000000     0.658400000000     0.625800000000     0          
H320     H      0.652900000000     0.646000000000     0.690300000000     0          
C321     C      0.774600000000     0.971400000000     0.571510000000     0          
C322     C      0.830600000000     0.955400000000     0.571580000000     0          
H323     H      0.849100000000     0.947900000000     0.620400000000     0          
H324     H      0.755200000000     0.976400000000     0.621000000000     0          
O325     O      0.440900000000     0.150800000000     0.581200000000     0          
O326     O      0.390500000000     0.080100000000     0.650300000000     0          
C327     C      0.402900000000     0.129500000000     0.626200000000     0          
C328     C      0.366200000000     0.174200000000     0.662700000000     0          
C329     C      0.329700000000     0.159800000000     0.722600000000     0          
H330     H      0.328000000000     0.122000000000     0.739800000000     0          
C331     C      0.295200000000     0.199000000000     0.758200000000     0          
H332     H      0.270400000000     0.187900000000     0.799500000000     0          
C333     C      0.296600000000     0.254800000000     0.733800000000     0          
C334     C      0.333400000000     0.269800000000     0.673100000000     0          
C335     C      0.367400000000     0.229700000000     0.638900000000     0          
H336     H      0.392300000000     0.240500000000     0.597700000000     0          
C337     C      0.336200000000     0.330000000000     0.645600000000     0          
H338     H      0.363900000000     0.333500000000     0.602900000000     0          
H339     H      0.299400000000     0.341600000000     0.625800000000     0          
H340     H      0.347100000000     0.354000000000     0.690300000000     0          
C341     C      0.225400000000     0.028600000000     0.571510000000     0          
C342     C      0.169400000000     0.044600000000     0.571580000000     0          
H343     H      0.150900000000     0.052100000000     0.620400000000     0          
H344     H      0.244800000000     0.023600000000     0.621000000000     0          
Zr345    Zr     0.105240000000     0.500000000000     0.000000000000     0          
Zr346    Zr     0.894760000000     0.500000000000     0.000000000000     0          
Zr347    Zr     0.500000000000     0.105240000000     0.500000000000     0          
Zr348    Zr     0.500000000000     0.894760000000     0.500000000000     0          
Zr349    Zr     0.000000000000     0.427130000000     0.103810000000     0          
O350     O      0.000000000000     0.448700000000     0.227100000000     0          
C351     C      0.000000000000     0.509400000000     0.336630000000     0          
C352     C      0.000000000000     0.563600000000     0.366520000000     0          
C353     C      0.000000000000     0.572500000000     0.448220000000     0          
C354     C      0.000000000000     0.472900000000     0.470110000000     0          
C355     C      0.000000000000     0.464000000000     0.388410000000     0          
C356     C      0.000000000000     0.427600000000     0.521900000000     0          
C357     C      0.000000000000     0.436500000000     0.603600000000     0          
C358     C      0.000000000000     0.490700000000     0.633500000000     0          
C359     C      0.000000000000     0.536100000000     0.581700000000     0          
O360     O      0.000000000000     0.337800000000     0.064500000000     0          
H361     H      0.000000000000     0.405200000000     0.639400000000     0          
H362     H      0.000000000000     0.583900000000     0.317900000000     0          
H363     H      0.000000000000     0.610000000000     0.468900000000     0          
H364     H      0.000000000000     0.426600000000     0.367800000000     0          
H365     H      0.000000000000     0.573500000000     0.602300000000     0          
Zr366    Zr     0.000000000000     0.572870000000     0.103810000000     0          
O367     O      0.000000000000     0.551300000000     0.227100000000     0          
O368     O      0.000000000000     0.662200000000     0.064500000000     0          
Zr369    Zr     0.572870000000     0.000000000000     0.603810000000     0          
O370     O      0.551300000000     0.000000000000     0.727100000000     0          
C371     C      0.490600000000     0.000000000000     0.836630000000     0          
C372     C      0.436400000000     0.000000000000     0.866520000000     0          
C373     C      0.427500000000     0.000000000000     0.948220000000     0          
C374     C      0.527100000000     0.000000000000     0.970110000000     0          
C375     C      0.536000000000     0.000000000000     0.888410000000     0          
C376     C      0.572400000000     0.000000000000     0.021900000000     0          
C377     C      0.563500000000     0.000000000000     0.103600000000     0          
C378     C      0.509300000000     0.000000000000     0.133500000000     0          
C379     C      0.463900000000     0.000000000000     0.081700000000     0          
O380     O      0.662200000000     0.000000000000     0.564500000000     0          
H381     H      0.594800000000     0.000000000000     0.139400000000     0          
H382     H      0.416100000000     0.000000000000     0.817900000000     0          
H383     H      0.390000000000     0.000000000000     0.968900000000     0          
H384     H      0.573400000000     0.000000000000     0.867800000000     0          
H385     H      0.426500000000     0.000000000000     0.102300000000     0          
Zr386    Zr     0.427130000000     0.000000000000     0.603810000000     0          
O387     O      0.448700000000     0.000000000000     0.727100000000     0          
O388     O      0.337800000000     0.000000000000     0.564500000000     0          
Zr389    Zr     0.000000000000     0.427130000000     0.896190000000     0          
O390     O      0.000000000000     0.448700000000     0.772900000000     0          
O391     O      0.000000000000     0.337800000000     0.935500000000     0          
Zr392    Zr     0.000000000000     0.572870000000     0.896190000000     0          
O393     O      0.000000000000     0.551300000000     0.772900000000     0          
O394     O      0.000000000000     0.662200000000     0.935500000000     0          
Zr395    Zr     0.427130000000     0.000000000000     0.396190000000     0          
O396     O      0.448700000000     0.000000000000     0.272900000000     0          
O397     O      0.337800000000     0.000000000000     0.435500000000     0          
Zr398    Zr     0.572870000000     0.000000000000     0.396190000000     0          
O399     O      0.551300000000     0.000000000000     0.272900000000     0          
O400     O      0.662200000000     0.000000000000     0.435500000000     0          
O401     O      0.053400000000     0.500000000000     0.106800000000     0          
O402     O      0.946600000000     0.500000000000     0.106800000000     0          
O403     O      0.500000000000     0.053400000000     0.606800000000     0          
O404     O      0.500000000000     0.946600000000     0.606800000000     0          
O405     O      0.946600000000     0.500000000000     0.893200000000     0          
O406     O      0.053400000000     0.500000000000     0.893200000000     0          
O407     O      0.500000000000     0.053400000000     0.393200000000     0          
O408     O      0.500000000000     0.946600000000     0.393200000000     0          
O409     O      0.053000000000     0.427600000000     0.000000000000     0          
C410     C      0.017400000000     0.252400000000     0.000000000000     0          
C411     C      0.049500000000     0.140700000000     0.000000000000     0          
C412     C      0.062100000000     0.078900000000     0.000000000000     0          
C413     C      0.072000000000     0.029800000000     0.000000000000     0          
O414     O      0.947000000000     0.572400000000     0.000000000000     0          
C415     C      0.982600000000     0.747600000000     0.000000000000     0          
C416     C      0.950500000000     0.859300000000     0.000000000000     0          
C417     C      0.937900000000     0.921100000000     0.000000000000     0          
C418     C      0.928000000000     0.970200000000     0.000000000000     0          
O419     O      0.572400000000     0.053000000000     0.500000000000     0          
C420     C      0.747600000000     0.017400000000     0.500000000000     0          
C421     C      0.859300000000     0.049500000000     0.500000000000     0          
C422     C      0.921100000000     0.062100000000     0.500000000000     0          
C423     C      0.970200000000     0.072000000000     0.500000000000     0          
O424     O      0.427600000000     0.947000000000     0.500000000000     0          
C425     C      0.252400000000     0.982600000000     0.500000000000     0          
C426     C      0.140700000000     0.950500000000     0.500000000000     0          
C427     C      0.078900000000     0.937900000000     0.500000000000     0          
C428     C      0.029800000000     0.928000000000     0.500000000000     0          
O429     O      0.947000000000     0.427600000000     0.000000000000     0          
C430     C      0.982600000000     0.252400000000     0.000000000000     0          
C431     C      0.950500000000     0.140700000000     0.000000000000     0          
C432     C      0.937900000000     0.078900000000     0.000000000000     0          
C433     C      0.928000000000     0.029800000000     0.000000000000     0          
O434     O      0.053000000000     0.572400000000     0.000000000000     0          
C435     C      0.017400000000     0.747600000000     0.000000000000     0          
C436     C      0.049500000000     0.859300000000     0.000000000000     0          
C437     C      0.062100000000     0.921100000000     0.000000000000     0          
C438     C      0.072000000000     0.970200000000     0.000000000000     0          
O439     O      0.427600000000     0.053000000000     0.500000000000     0          
C440     C      0.252400000000     0.017400000000     0.500000000000     0          
C441     C      0.140700000000     0.049500000000     0.500000000000     0          
C442     C      0.078900000000     0.062100000000     0.500000000000     0          
C443     C      0.029800000000     0.072000000000     0.500000000000     0          
O444     O      0.572400000000     0.947000000000     0.500000000000     0          
C445     C      0.747600000000     0.982600000000     0.500000000000     0          
C446     C      0.859300000000     0.950500000000     0.500000000000     0          
C447     C      0.921100000000     0.937900000000     0.500000000000     0          
C448     C      0.970200000000     0.928000000000     0.500000000000     0          
C449     C      0.000000000000     0.500000000000     0.247700000000     0          
C450     C      0.000000000000     0.500000000000     0.722200000000     0          
C451     C      0.500000000000     0.000000000000     0.747700000000     0          
C452     C      0.500000000000     0.000000000000     0.222200000000     0          
C453     C      0.000000000000     0.527200000000     0.500000000000     0          
H454     H      0.000000000000     0.390200000000     0.500000000000     0          
C455     C      0.472800000000     0.000000000000     0.000000000000     0          
H456     H      0.609800000000     0.000000000000     0.000000000000     0          
C457     C      0.000000000000     0.313000000000     0.000000000000     0          
C458     C      0.000000000000     0.687000000000     0.000000000000     0          
C459     C      0.687000000000     0.000000000000     0.500000000000     0          
C460     C      0.313000000000     0.000000000000     0.500000000000     0          


