data_ERANAO

_audit_creation_method RASPA-1.0
_audit_creation_date 2020-12-11
_audit_author_name 'Rocio Bueno-Perez'

_cell_length_a    23.07
_cell_length_b    23.075
_cell_length_c    19.16
_cell_angle_alpha 90
_cell_angle_beta  90
_cell_angle_gamma 90
_cell_volume      10199.6

_symmetry_cell_setting          triclinic
_symmetry_space_group_name_Hall 'P 1'
_symmetry_space_group_name_H-M  'P 1'
_symmetry_Int_Tables_number     1

_symmetry_equiv_pos_as_xyz 'x,y,z'

loop_
_atom_site_label
_atom_site_type_symbol
_atom_site_fract_x
_atom_site_fract_y
_atom_site_fract_z
_atom_site_charge
O1       O      0.582700000000     0.890900000000     0.632600000000     0          
O2       O      0.658800000000     0.941300000000     0.573400000000     0          
C3       C      0.632100000000     0.906000000000     0.629000000000     0          
C4       C      0.681200000000     0.870700000000     0.660600000000     0          
C5       C      0.740800000000     0.877400000000     0.653100000000     0          
H6       H      0.755700000000     0.907000000000     0.623800000000     0          
C7       C      0.778500000000     0.840800000000     0.688600000000     0          
H8       H      0.819200000000     0.845400000000     0.683400000000     0          
C9       C      0.756700000000     0.797400000000     0.731600000000     0          
C10      C      0.697200000000     0.790600000000     0.739100000000     0          
H11      H      0.682300000000     0.761000000000     0.768500000000     0          
C12      C      0.659400000000     0.827200000000     0.703700000000     0          
H13      H      0.618700000000     0.822500000000     0.708900000000     0          
Zr14     Zr     0.500000000000     0.923710000000     0.592810000000     0          
O15      O      0.500000000000     0.950200000000     0.703700000000     0          
C16      C      0.500000000000     0.052110000000     0.851900000000     0          
H17      H      0.500000000000     0.087800000000     0.827100000000     0          
C18      C      0.500000000000     0.052130000000     0.924400000000     0          
H19      H      0.500000000000     0.087800000000     0.949200000000     0          
Zr20     Zr     0.608670000000     0.000000000000     0.500000000000     0          
O21      O      0.556200000000     0.000000000000     0.593100000000     0          
C22      C      0.500000000000     0.000000000000     0.736800000000     0          
C23      C      0.500000000000     0.000000000000     0.815500000000     0          
C24      C      0.500000000000     0.000000000000     0.960800000000     0          
O25      O      0.551400000000     0.918300000000     0.500000000000     0          
O26      O      0.109100000000     0.582700000000     0.132600000000     0          
O27      O      0.058700000000     0.658800000000     0.073400000000     0          
C28      C      0.094000000000     0.632100000000     0.129000000000     0          
C29      C      0.129300000000     0.681200000000     0.160600000000     0          
C30      C      0.122600000000     0.740800000000     0.153100000000     0          
H31      H      0.093000000000     0.755700000000     0.123800000000     0          
C32      C      0.159200000000     0.778500000000     0.188600000000     0          
H33      H      0.154600000000     0.819200000000     0.183400000000     0          
C34      C      0.202600000000     0.756700000000     0.231600000000     0          
C35      C      0.209400000000     0.697200000000     0.239100000000     0          
H36      H      0.239000000000     0.682300000000     0.268500000000     0          
C37      C      0.172800000000     0.659400000000     0.203700000000     0          
H38      H      0.177500000000     0.618700000000     0.208900000000     0          
Zr39     Zr     0.076290000000     0.500000000000     0.092810000000     0          
O40      O      0.049800000000     0.500000000000     0.203700000000     0          
C41      C      0.947890000000     0.500000000000     0.351900000000     0          
H42      H      0.912200000000     0.500000000000     0.327100000000     0          
C43      C      0.947870000000     0.500000000000     0.424400000000     0          
H44      H      0.912200000000     0.500000000000     0.449200000000     0          
Zr45     Zr     0.000000000000     0.608670000000     0.000000000000     0          
O46      O      0.000000000000     0.556200000000     0.093100000000     0          
C47      C      0.000000000000     0.500000000000     0.236800000000     0          
C48      C      0.000000000000     0.500000000000     0.315500000000     0          
C49      C      0.000000000000     0.500000000000     0.460800000000     0          
O50      O      0.081700000000     0.551400000000     0.000000000000     0          
O51      O      0.417300000000     0.109100000000     0.632600000000     0          
O52      O      0.341200000000     0.058700000000     0.573400000000     0          
C53      C      0.367900000000     0.094000000000     0.629000000000     0          
C54      C      0.318800000000     0.129300000000     0.660600000000     0          
C55      C      0.259200000000     0.122600000000     0.653100000000     0          
H56      H      0.244300000000     0.093000000000     0.623800000000     0          
C57      C      0.221500000000     0.159200000000     0.688600000000     0          
H58      H      0.180800000000     0.154600000000     0.683400000000     0          
C59      C      0.243300000000     0.202600000000     0.731600000000     0          
C60      C      0.302800000000     0.209400000000     0.739100000000     0          
H61      H      0.317700000000     0.239000000000     0.768500000000     0          
C62      C      0.340600000000     0.172800000000     0.703700000000     0          
H63      H      0.381300000000     0.177500000000     0.708900000000     0          
Zr64     Zr     0.500000000000     0.076290000000     0.592810000000     0          
O65      O      0.500000000000     0.049800000000     0.703700000000     0          
C66      C      0.500000000000     0.947890000000     0.851900000000     0          
H67      H      0.500000000000     0.912200000000     0.827100000000     0          
C68      C      0.500000000000     0.947870000000     0.924400000000     0          
H69      H      0.500000000000     0.912200000000     0.949200000000     0          
Zr70     Zr     0.391330000000     0.000000000000     0.500000000000     0          
O71      O      0.443800000000     0.000000000000     0.593100000000     0          
O72      O      0.448600000000     0.081700000000     0.500000000000     0          
O73      O      0.890900000000     0.417300000000     0.132600000000     0          
O74      O      0.941300000000     0.341200000000     0.073400000000     0          
C75      C      0.906000000000     0.367900000000     0.129000000000     0          
C76      C      0.870700000000     0.318800000000     0.160600000000     0          
C77      C      0.877400000000     0.259200000000     0.153100000000     0          
H78      H      0.907000000000     0.244300000000     0.123800000000     0          
C79      C      0.840800000000     0.221500000000     0.188600000000     0          
H80      H      0.845400000000     0.180800000000     0.183400000000     0          
C81      C      0.797400000000     0.243300000000     0.231600000000     0          
C82      C      0.790600000000     0.302800000000     0.239100000000     0          
H83      H      0.761000000000     0.317700000000     0.268500000000     0          
C84      C      0.827200000000     0.340600000000     0.203700000000     0          
H85      H      0.822500000000     0.381300000000     0.208900000000     0          
Zr86     Zr     0.923710000000     0.500000000000     0.092810000000     0          
O87      O      0.950200000000     0.500000000000     0.203700000000     0          
C88      C      0.052110000000     0.500000000000     0.351900000000     0          
H89      H      0.087800000000     0.500000000000     0.327100000000     0          
C90      C      0.052130000000     0.500000000000     0.424400000000     0          
H91      H      0.087800000000     0.500000000000     0.449200000000     0          
Zr92     Zr     0.000000000000     0.391330000000     0.000000000000     0          
O93      O      0.000000000000     0.443800000000     0.093100000000     0          
O94      O      0.918300000000     0.448600000000     0.000000000000     0          
O95      O      0.582700000000     0.109100000000     0.367400000000     0          
O96      O      0.658800000000     0.058700000000     0.426600000000     0          
C97      C      0.632100000000     0.094000000000     0.371000000000     0          
C98      C      0.681200000000     0.129300000000     0.339400000000     0          
C99      C      0.740800000000     0.122600000000     0.346900000000     0          
H100     H      0.755700000000     0.093000000000     0.376200000000     0          
C101     C      0.778500000000     0.159200000000     0.311400000000     0          
H102     H      0.819200000000     0.154600000000     0.316600000000     0          
C103     C      0.756700000000     0.202600000000     0.268400000000     0          
C104     C      0.697200000000     0.209400000000     0.260900000000     0          
H105     H      0.682300000000     0.239000000000     0.231500000000     0          
C106     C      0.659400000000     0.172800000000     0.296300000000     0          
H107     H      0.618700000000     0.177500000000     0.291100000000     0          
Zr108    Zr     0.500000000000     0.076290000000     0.407190000000     0          
O109     O      0.500000000000     0.049800000000     0.296300000000     0          
C110     C      0.500000000000     0.947890000000     0.148100000000     0          
H111     H      0.500000000000     0.912200000000     0.172900000000     0          
C112     C      0.500000000000     0.947870000000     0.075600000000     0          
H113     H      0.500000000000     0.912200000000     0.050800000000     0          
O114     O      0.556200000000     0.000000000000     0.406900000000     0          
C115     C      0.500000000000     0.000000000000     0.263200000000     0          
C116     C      0.500000000000     0.000000000000     0.184500000000     0          
C117     C      0.500000000000     0.000000000000     0.039200000000     0          
O118     O      0.551400000000     0.081700000000     0.500000000000     0          
O119     O      0.890900000000     0.582700000000     0.867400000000     0          
O120     O      0.941300000000     0.658800000000     0.926600000000     0          
C121     C      0.906000000000     0.632100000000     0.871000000000     0          
C122     C      0.870700000000     0.681200000000     0.839400000000     0          
C123     C      0.877400000000     0.740800000000     0.846900000000     0          
H124     H      0.907000000000     0.755700000000     0.876200000000     0          
C125     C      0.840800000000     0.778500000000     0.811400000000     0          
H126     H      0.845400000000     0.819200000000     0.816600000000     0          
C127     C      0.797400000000     0.756700000000     0.768400000000     0          
C128     C      0.790600000000     0.697200000000     0.760900000000     0          
H129     H      0.761000000000     0.682300000000     0.731500000000     0          
C130     C      0.827200000000     0.659400000000     0.796300000000     0          
H131     H      0.822500000000     0.618700000000     0.791100000000     0          
Zr132    Zr     0.923710000000     0.500000000000     0.907190000000     0          
O133     O      0.950200000000     0.500000000000     0.796300000000     0          
C134     C      0.052110000000     0.500000000000     0.648100000000     0          
H135     H      0.087800000000     0.500000000000     0.672900000000     0          
C136     C      0.052130000000     0.500000000000     0.575600000000     0          
H137     H      0.087800000000     0.500000000000     0.550800000000     0          
O138     O      0.000000000000     0.556200000000     0.906900000000     0          
C139     C      0.000000000000     0.500000000000     0.763200000000     0          
C140     C      0.000000000000     0.500000000000     0.684500000000     0          
C141     C      0.000000000000     0.500000000000     0.539200000000     0          
O142     O      0.918300000000     0.551400000000     0.000000000000     0          
O143     O      0.417300000000     0.890900000000     0.367400000000     0          
O144     O      0.341200000000     0.941300000000     0.426600000000     0          
C145     C      0.367900000000     0.906000000000     0.371000000000     0          
C146     C      0.318800000000     0.870700000000     0.339400000000     0          
C147     C      0.259200000000     0.877400000000     0.346900000000     0          
H148     H      0.244300000000     0.907000000000     0.376200000000     0          
C149     C      0.221500000000     0.840800000000     0.311400000000     0          
H150     H      0.180800000000     0.845400000000     0.316600000000     0          
C151     C      0.243300000000     0.797400000000     0.268400000000     0          
C152     C      0.302800000000     0.790600000000     0.260900000000     0          
H153     H      0.317700000000     0.761000000000     0.231500000000     0          
C154     C      0.340600000000     0.827200000000     0.296300000000     0          
H155     H      0.381300000000     0.822500000000     0.291100000000     0          
Zr156    Zr     0.500000000000     0.923710000000     0.407190000000     0          
O157     O      0.500000000000     0.950200000000     0.296300000000     0          
C158     C      0.500000000000     0.052110000000     0.148100000000     0          
H159     H      0.500000000000     0.087800000000     0.172900000000     0          
C160     C      0.500000000000     0.052130000000     0.075600000000     0          
H161     H      0.500000000000     0.087800000000     0.050800000000     0          
O162     O      0.443800000000     0.000000000000     0.406900000000     0          
O163     O      0.448600000000     0.918300000000     0.500000000000     0          
O164     O      0.109100000000     0.417300000000     0.867400000000     0          
O165     O      0.058700000000     0.341200000000     0.926600000000     0          
C166     C      0.094000000000     0.367900000000     0.871000000000     0          
C167     C      0.129300000000     0.318800000000     0.839400000000     0          
C168     C      0.122600000000     0.259200000000     0.846900000000     0          
H169     H      0.093000000000     0.244300000000     0.876200000000     0          
C170     C      0.159200000000     0.221500000000     0.811400000000     0          
H171     H      0.154600000000     0.180800000000     0.816600000000     0          
C172     C      0.202600000000     0.243300000000     0.768400000000     0          
C173     C      0.209400000000     0.302800000000     0.760900000000     0          
H174     H      0.239000000000     0.317700000000     0.731500000000     0          
C175     C      0.172800000000     0.340600000000     0.796300000000     0          
H176     H      0.177500000000     0.381300000000     0.791100000000     0          
Zr177    Zr     0.076290000000     0.500000000000     0.907190000000     0          
O178     O      0.049800000000     0.500000000000     0.796300000000     0          
C179     C      0.947890000000     0.500000000000     0.648100000000     0          
H180     H      0.912200000000     0.500000000000     0.672900000000     0          
C181     C      0.947870000000     0.500000000000     0.575600000000     0          
H182     H      0.912200000000     0.500000000000     0.550800000000     0          
O183     O      0.000000000000     0.443800000000     0.906900000000     0          
O184     O      0.081700000000     0.448600000000     0.000000000000     0          
O185     O      0.417300000000     0.109100000000     0.367400000000     0          
O186     O      0.341200000000     0.058700000000     0.426600000000     0          
C187     C      0.367900000000     0.094000000000     0.371000000000     0          
C188     C      0.318800000000     0.129300000000     0.339400000000     0          
C189     C      0.259200000000     0.122600000000     0.346900000000     0          
H190     H      0.244300000000     0.093000000000     0.376200000000     0          
C191     C      0.221500000000     0.159200000000     0.311400000000     0          
H192     H      0.180800000000     0.154600000000     0.316600000000     0          
C193     C      0.243300000000     0.202600000000     0.268400000000     0          
C194     C      0.302800000000     0.209400000000     0.260900000000     0          
H195     H      0.317700000000     0.239000000000     0.231500000000     0          
C196     C      0.340600000000     0.172800000000     0.296300000000     0          
H197     H      0.381300000000     0.177500000000     0.291100000000     0          
O198     O      0.890900000000     0.417300000000     0.867400000000     0          
O199     O      0.941300000000     0.341200000000     0.926600000000     0          
C200     C      0.906000000000     0.367900000000     0.871000000000     0          
C201     C      0.870700000000     0.318800000000     0.839400000000     0          
C202     C      0.877400000000     0.259200000000     0.846900000000     0          
H203     H      0.907000000000     0.244300000000     0.876200000000     0          
C204     C      0.840800000000     0.221500000000     0.811400000000     0          
H205     H      0.845400000000     0.180800000000     0.816600000000     0          
C206     C      0.797400000000     0.243300000000     0.768400000000     0          
C207     C      0.790600000000     0.302800000000     0.760900000000     0          
H208     H      0.761000000000     0.317700000000     0.731500000000     0          
C209     C      0.827200000000     0.340600000000     0.796300000000     0          
H210     H      0.822500000000     0.381300000000     0.791100000000     0          
O211     O      0.582700000000     0.890900000000     0.367400000000     0          
O212     O      0.658800000000     0.941300000000     0.426600000000     0          
C213     C      0.632100000000     0.906000000000     0.371000000000     0          
C214     C      0.681200000000     0.870700000000     0.339400000000     0          
C215     C      0.740800000000     0.877400000000     0.346900000000     0          
H216     H      0.755700000000     0.907000000000     0.376200000000     0          
C217     C      0.778500000000     0.840800000000     0.311400000000     0          
H218     H      0.819200000000     0.845400000000     0.316600000000     0          
C219     C      0.756700000000     0.797400000000     0.268400000000     0          
C220     C      0.697200000000     0.790600000000     0.260900000000     0          
H221     H      0.682300000000     0.761000000000     0.231500000000     0          
C222     C      0.659400000000     0.827200000000     0.296300000000     0          
H223     H      0.618700000000     0.822500000000     0.291100000000     0          
O224     O      0.109100000000     0.582700000000     0.867400000000     0          
O225     O      0.058700000000     0.658800000000     0.926600000000     0          
C226     C      0.094000000000     0.632100000000     0.871000000000     0          
C227     C      0.129300000000     0.681200000000     0.839400000000     0          
C228     C      0.122600000000     0.740800000000     0.846900000000     0          
H229     H      0.093000000000     0.755700000000     0.876200000000     0          
C230     C      0.159200000000     0.778500000000     0.811400000000     0          
H231     H      0.154600000000     0.819200000000     0.816600000000     0          
C232     C      0.202600000000     0.756700000000     0.768400000000     0          
C233     C      0.209400000000     0.697200000000     0.760900000000     0          
H234     H      0.239000000000     0.682300000000     0.731500000000     0          
C235     C      0.172800000000     0.659400000000     0.796300000000     0          
H236     H      0.177500000000     0.618700000000     0.791100000000     0          
O237     O      0.417300000000     0.890900000000     0.632600000000     0          
O238     O      0.341200000000     0.941300000000     0.573400000000     0          
C239     C      0.367900000000     0.906000000000     0.629000000000     0          
C240     C      0.318800000000     0.870700000000     0.660600000000     0          
C241     C      0.259200000000     0.877400000000     0.653100000000     0          
H242     H      0.244300000000     0.907000000000     0.623800000000     0          
C243     C      0.221500000000     0.840800000000     0.688600000000     0          
H244     H      0.180800000000     0.845400000000     0.683400000000     0          
C245     C      0.243300000000     0.797400000000     0.731600000000     0          
C246     C      0.302800000000     0.790600000000     0.739100000000     0          
H247     H      0.317700000000     0.761000000000     0.768500000000     0          
C248     C      0.340600000000     0.827200000000     0.703700000000     0          
H249     H      0.381300000000     0.822500000000     0.708900000000     0          
O250     O      0.109100000000     0.417300000000     0.132600000000     0          
O251     O      0.058700000000     0.341200000000     0.073400000000     0          
C252     C      0.094000000000     0.367900000000     0.129000000000     0          
C253     C      0.129300000000     0.318800000000     0.160600000000     0          
C254     C      0.122600000000     0.259200000000     0.153100000000     0          
H255     H      0.093000000000     0.244300000000     0.123800000000     0          
C256     C      0.159200000000     0.221500000000     0.188600000000     0          
H257     H      0.154600000000     0.180800000000     0.183400000000     0          
C258     C      0.202600000000     0.243300000000     0.231600000000     0          
C259     C      0.209400000000     0.302800000000     0.239100000000     0          
H260     H      0.239000000000     0.317700000000     0.268500000000     0          
C261     C      0.172800000000     0.340600000000     0.203700000000     0          
H262     H      0.177500000000     0.381300000000     0.208900000000     0          
O263     O      0.582700000000     0.109100000000     0.632600000000     0          
O264     O      0.658800000000     0.058700000000     0.573400000000     0          
C265     C      0.632100000000     0.094000000000     0.629000000000     0          
C266     C      0.681200000000     0.129300000000     0.660600000000     0          
C267     C      0.740800000000     0.122600000000     0.653100000000     0          
H268     H      0.755700000000     0.093000000000     0.623800000000     0          
C269     C      0.778500000000     0.159200000000     0.688600000000     0          
H270     H      0.819200000000     0.154600000000     0.683400000000     0          
C271     C      0.756700000000     0.202600000000     0.731600000000     0          
C272     C      0.697200000000     0.209400000000     0.739100000000     0          
H273     H      0.682300000000     0.239000000000     0.768500000000     0          
C274     C      0.659400000000     0.172800000000     0.703700000000     0          
H275     H      0.618700000000     0.177500000000     0.708900000000     0          
O276     O      0.890900000000     0.582700000000     0.132600000000     0          
O277     O      0.941300000000     0.658800000000     0.073400000000     0          
C278     C      0.906000000000     0.632100000000     0.129000000000     0          
C279     C      0.870700000000     0.681200000000     0.160600000000     0          
C280     C      0.877400000000     0.740800000000     0.153100000000     0          
H281     H      0.907000000000     0.755700000000     0.123800000000     0          
C282     C      0.840800000000     0.778500000000     0.188600000000     0          
H283     H      0.845400000000     0.819200000000     0.183400000000     0          
C284     C      0.797400000000     0.756700000000     0.231600000000     0          
C285     C      0.790600000000     0.697200000000     0.239100000000     0          
H286     H      0.761000000000     0.682300000000     0.268500000000     0          
C287     C      0.827200000000     0.659400000000     0.203700000000     0          
H288     H      0.822500000000     0.618700000000     0.208900000000     0          


