data_ERAVUQ

_audit_creation_method RASPA-1.0
_audit_creation_date 2020-12-11
_audit_author_name 'Rocio Bueno-Perez'

_cell_length_a    23.33
_cell_length_b    23.332
_cell_length_c    19.07
_cell_angle_alpha 90
_cell_angle_beta  90
_cell_angle_gamma 90
_cell_volume      10380.5

_symmetry_cell_setting          triclinic
_symmetry_space_group_name_Hall 'P 1'
_symmetry_space_group_name_H-M  'P 1'
_symmetry_Int_Tables_number     1

_symmetry_equiv_pos_as_xyz 'x,y,z'

loop_
_atom_site_label
_atom_site_type_symbol
_atom_site_fract_x
_atom_site_fract_y
_atom_site_fract_z
_atom_site_charge
O1       O      0.418700000000     0.889000000000     0.637300000000     0          
O2       O      0.344000000000     0.939600000000     0.574100000000     0          
C3       C      0.365700000000     0.901200000000     0.619300000000     0          
C4       C      0.325700000000     0.861700000000     0.658300000000     0          
C5       C      0.347600000000     0.816200000000     0.697100000000     0          
H6       H      0.387800000000     0.810100000000     0.699200000000     0          
C7       C      0.310700000000     0.779800000000     0.733000000000     0          
H8       H      0.325700000000     0.748800000000     0.759600000000     0          
C9       C      0.251800000000     0.788800000000     0.730040000000     0          
C10      C      0.229900000000     0.834200000000     0.691200000000     0          
H11      H      0.189700000000     0.840300000000     0.689100000000     0          
C12      C      0.266800000000     0.870600000000     0.655300000000     0          
H13      H      0.251800000000     0.901600000000     0.628700000000     0          
H14      H      0.609100000000     0.586500000000     0.458900000000     0          
O15      O      0.581300000000     0.111000000000     0.637300000000     0          
O16      O      0.656000000000     0.060400000000     0.574100000000     0          
C17      C      0.634300000000     0.098800000000     0.619300000000     0          
C18      C      0.674300000000     0.138300000000     0.658300000000     0          
C19      C      0.652400000000     0.183800000000     0.697100000000     0          
H20      H      0.612200000000     0.189900000000     0.699200000000     0          
C21      C      0.689300000000     0.220200000000     0.733000000000     0          
H22      H      0.674300000000     0.251200000000     0.759600000000     0          
C23      C      0.748200000000     0.211200000000     0.730040000000     0          
C24      C      0.770100000000     0.165800000000     0.691200000000     0          
H25      H      0.810300000000     0.159700000000     0.689100000000     0          
C26      C      0.733200000000     0.129400000000     0.655300000000     0          
H27      H      0.748200000000     0.098400000000     0.628700000000     0          
H28      H      0.390900000000     0.413500000000     0.458900000000     0          
O29      O      0.111000000000     0.418700000000     0.137300000000     0          
O30      O      0.060400000000     0.344000000000     0.074100000000     0          
C31      C      0.098800000000     0.365700000000     0.119300000000     0          
C32      C      0.138300000000     0.325700000000     0.158300000000     0          
C33      C      0.183800000000     0.347600000000     0.197100000000     0          
H34      H      0.189900000000     0.387800000000     0.199200000000     0          
C35      C      0.220200000000     0.310700000000     0.233000000000     0          
H36      H      0.251200000000     0.325700000000     0.259600000000     0          
C37      C      0.211200000000     0.251800000000     0.230040000000     0          
C38      C      0.165800000000     0.229900000000     0.191200000000     0          
H39      H      0.159700000000     0.189700000000     0.189100000000     0          
C40      C      0.129400000000     0.266800000000     0.155300000000     0          
H41      H      0.098400000000     0.251800000000     0.128700000000     0          
O42      O      0.889000000000     0.581300000000     0.137300000000     0          
O43      O      0.939600000000     0.656000000000     0.074100000000     0          
C44      C      0.901200000000     0.634300000000     0.119300000000     0          
C45      C      0.861700000000     0.674300000000     0.158300000000     0          
C46      C      0.816200000000     0.652400000000     0.197100000000     0          
H47      H      0.810100000000     0.612200000000     0.199200000000     0          
C48      C      0.779800000000     0.689300000000     0.233000000000     0          
H49      H      0.748800000000     0.674300000000     0.259600000000     0          
C50      C      0.788800000000     0.748200000000     0.230040000000     0          
C51      C      0.834200000000     0.770100000000     0.191200000000     0          
H52      H      0.840300000000     0.810300000000     0.189100000000     0          
C53      C      0.870600000000     0.733200000000     0.155300000000     0          
H54      H      0.901600000000     0.748200000000     0.128700000000     0          
O55      O      0.581300000000     0.889000000000     0.362700000000     0          
O56      O      0.656000000000     0.939600000000     0.425900000000     0          
C57      C      0.634300000000     0.901200000000     0.380700000000     0          
C58      C      0.674300000000     0.861700000000     0.341700000000     0          
C59      C      0.652400000000     0.816200000000     0.302900000000     0          
H60      H      0.612200000000     0.810100000000     0.300800000000     0          
C61      C      0.689300000000     0.779800000000     0.267000000000     0          
H62      H      0.674300000000     0.748800000000     0.240400000000     0          
C63      C      0.748200000000     0.788800000000     0.269960000000     0          
C64      C      0.770100000000     0.834200000000     0.308800000000     0          
H65      H      0.810300000000     0.840300000000     0.310900000000     0          
C66      C      0.733200000000     0.870600000000     0.344700000000     0          
H67      H      0.748200000000     0.901600000000     0.371300000000     0          
O68      O      0.418700000000     0.111000000000     0.362700000000     0          
O69      O      0.344000000000     0.060400000000     0.425900000000     0          
C70      C      0.365700000000     0.098800000000     0.380700000000     0          
C71      C      0.325700000000     0.138300000000     0.341700000000     0          
C72      C      0.347600000000     0.183800000000     0.302900000000     0          
H73      H      0.387800000000     0.189900000000     0.300800000000     0          
C74      C      0.310700000000     0.220200000000     0.267000000000     0          
H75      H      0.325700000000     0.251200000000     0.240400000000     0          
C76      C      0.251800000000     0.211200000000     0.269960000000     0          
C77      C      0.229900000000     0.165800000000     0.308800000000     0          
H78      H      0.189700000000     0.159700000000     0.310900000000     0          
C79      C      0.266800000000     0.129400000000     0.344700000000     0          
H80      H      0.251800000000     0.098400000000     0.371300000000     0          
O81      O      0.889000000000     0.418700000000     0.862700000000     0          
O82      O      0.939600000000     0.344000000000     0.925900000000     0          
C83      C      0.901200000000     0.365700000000     0.880700000000     0          
C84      C      0.861700000000     0.325700000000     0.841700000000     0          
C85      C      0.816200000000     0.347600000000     0.802900000000     0          
H86      H      0.810100000000     0.387800000000     0.800800000000     0          
C87      C      0.779800000000     0.310700000000     0.767000000000     0          
H88      H      0.748800000000     0.325700000000     0.740400000000     0          
C89      C      0.788800000000     0.251800000000     0.769960000000     0          
C90      C      0.834200000000     0.229900000000     0.808800000000     0          
H91      H      0.840300000000     0.189700000000     0.810900000000     0          
C92      C      0.870600000000     0.266800000000     0.844700000000     0          
H93      H      0.901600000000     0.251800000000     0.871300000000     0          
H94      H      0.586500000000     0.609100000000     0.041100000000     0          
O95      O      0.111000000000     0.581300000000     0.862700000000     0          
O96      O      0.060400000000     0.656000000000     0.925900000000     0          
C97      C      0.098800000000     0.634300000000     0.880700000000     0          
C98      C      0.138300000000     0.674300000000     0.841700000000     0          
C99      C      0.183800000000     0.652400000000     0.802900000000     0          
H100     H      0.189900000000     0.612200000000     0.800800000000     0          
C101     C      0.220200000000     0.689300000000     0.767000000000     0          
H102     H      0.251200000000     0.674300000000     0.740400000000     0          
C103     C      0.211200000000     0.748200000000     0.769960000000     0          
C104     C      0.165800000000     0.770100000000     0.808800000000     0          
H105     H      0.159700000000     0.810300000000     0.810900000000     0          
C106     C      0.129400000000     0.733200000000     0.844700000000     0          
H107     H      0.098400000000     0.748200000000     0.871300000000     0          
H108     H      0.413500000000     0.390900000000     0.041100000000     0          
O109     O      0.581300000000     0.111000000000     0.362700000000     0          
O110     O      0.656000000000     0.060400000000     0.425900000000     0          
C111     C      0.634300000000     0.098800000000     0.380700000000     0          
C112     C      0.674300000000     0.138300000000     0.341700000000     0          
C113     C      0.652400000000     0.183800000000     0.302900000000     0          
H114     H      0.612200000000     0.189900000000     0.300800000000     0          
C115     C      0.689300000000     0.220200000000     0.267000000000     0          
H116     H      0.674300000000     0.251200000000     0.240400000000     0          
C117     C      0.748200000000     0.211200000000     0.269960000000     0          
C118     C      0.770100000000     0.165800000000     0.308800000000     0          
H119     H      0.810300000000     0.159700000000     0.310900000000     0          
C120     C      0.733200000000     0.129400000000     0.344700000000     0          
H121     H      0.748200000000     0.098400000000     0.371300000000     0          
H122     H      0.390900000000     0.413500000000     0.541100000000     0          
O123     O      0.418700000000     0.889000000000     0.362700000000     0          
O124     O      0.344000000000     0.939600000000     0.425900000000     0          
C125     C      0.365700000000     0.901200000000     0.380700000000     0          
C126     C      0.325700000000     0.861700000000     0.341700000000     0          
C127     C      0.347600000000     0.816200000000     0.302900000000     0          
H128     H      0.387800000000     0.810100000000     0.300800000000     0          
C129     C      0.310700000000     0.779800000000     0.267000000000     0          
H130     H      0.325700000000     0.748800000000     0.240400000000     0          
C131     C      0.251800000000     0.788800000000     0.269960000000     0          
C132     C      0.229900000000     0.834200000000     0.308800000000     0          
H133     H      0.189700000000     0.840300000000     0.310900000000     0          
C134     C      0.266800000000     0.870600000000     0.344700000000     0          
H135     H      0.251800000000     0.901600000000     0.371300000000     0          
H136     H      0.609100000000     0.586500000000     0.541100000000     0          
O137     O      0.889000000000     0.581300000000     0.862700000000     0          
O138     O      0.939600000000     0.656000000000     0.925900000000     0          
C139     C      0.901200000000     0.634300000000     0.880700000000     0          
C140     C      0.861700000000     0.674300000000     0.841700000000     0          
C141     C      0.816200000000     0.652400000000     0.802900000000     0          
H142     H      0.810100000000     0.612200000000     0.800800000000     0          
C143     C      0.779800000000     0.689300000000     0.767000000000     0          
H144     H      0.748800000000     0.674300000000     0.740400000000     0          
C145     C      0.788800000000     0.748200000000     0.769960000000     0          
C146     C      0.834200000000     0.770100000000     0.808800000000     0          
H147     H      0.840300000000     0.810300000000     0.810900000000     0          
C148     C      0.870600000000     0.733200000000     0.844700000000     0          
H149     H      0.901600000000     0.748200000000     0.871300000000     0          
O151     O      0.111000000000     0.418700000000     0.862700000000     0          
O152     O      0.060400000000     0.344000000000     0.925900000000     0          
C153     C      0.098800000000     0.365700000000     0.880700000000     0          
C154     C      0.138300000000     0.325700000000     0.841700000000     0          
C155     C      0.183800000000     0.347600000000     0.802900000000     0          
H156     H      0.189900000000     0.387800000000     0.800800000000     0          
C157     C      0.220200000000     0.310700000000     0.767000000000     0          
H158     H      0.251200000000     0.325700000000     0.740400000000     0          
C159     C      0.211200000000     0.251800000000     0.769960000000     0          
C160     C      0.165800000000     0.229900000000     0.808800000000     0          
H161     H      0.159700000000     0.189700000000     0.810900000000     0          
C162     C      0.129400000000     0.266800000000     0.844700000000     0          
H163     H      0.098400000000     0.251800000000     0.871300000000     0          
O165     O      0.418700000000     0.111000000000     0.637300000000     0          
O166     O      0.344000000000     0.060400000000     0.574100000000     0          
C167     C      0.365700000000     0.098800000000     0.619300000000     0          
C168     C      0.325700000000     0.138300000000     0.658300000000     0          
C169     C      0.347600000000     0.183800000000     0.697100000000     0          
H170     H      0.387800000000     0.189900000000     0.699200000000     0          
C171     C      0.310700000000     0.220200000000     0.733000000000     0          
H172     H      0.325700000000     0.251200000000     0.759600000000     0          
C173     C      0.251800000000     0.211200000000     0.730040000000     0          
C174     C      0.229900000000     0.165800000000     0.691200000000     0          
H175     H      0.189700000000     0.159700000000     0.689100000000     0          
C176     C      0.266800000000     0.129400000000     0.655300000000     0          
H177     H      0.251800000000     0.098400000000     0.628700000000     0          
O178     O      0.581300000000     0.889000000000     0.637300000000     0          
O179     O      0.656000000000     0.939600000000     0.574100000000     0          
C180     C      0.634300000000     0.901200000000     0.619300000000     0          
C181     C      0.674300000000     0.861700000000     0.658300000000     0          
C182     C      0.652400000000     0.816200000000     0.697100000000     0          
H183     H      0.612200000000     0.810100000000     0.699200000000     0          
C184     C      0.689300000000     0.779800000000     0.733000000000     0          
H185     H      0.674300000000     0.748800000000     0.759600000000     0          
C186     C      0.748200000000     0.788800000000     0.730040000000     0          
C187     C      0.770100000000     0.834200000000     0.691200000000     0          
H188     H      0.810300000000     0.840300000000     0.689100000000     0          
C189     C      0.733200000000     0.870600000000     0.655300000000     0          
H190     H      0.748200000000     0.901600000000     0.628700000000     0          
O191     O      0.111000000000     0.581300000000     0.137300000000     0          
O192     O      0.060400000000     0.656000000000     0.074100000000     0          
C193     C      0.098800000000     0.634300000000     0.119300000000     0          
C194     C      0.138300000000     0.674300000000     0.158300000000     0          
C195     C      0.183800000000     0.652400000000     0.197100000000     0          
H196     H      0.189900000000     0.612200000000     0.199200000000     0          
C197     C      0.220200000000     0.689300000000     0.233000000000     0          
H198     H      0.251200000000     0.674300000000     0.259600000000     0          
C199     C      0.211200000000     0.748200000000     0.230040000000     0          
C200     C      0.165800000000     0.770100000000     0.191200000000     0          
H201     H      0.159700000000     0.810300000000     0.189100000000     0          
C202     C      0.129400000000     0.733200000000     0.155300000000     0          
H203     H      0.098400000000     0.748200000000     0.128700000000     0          
H204     H      0.413500000000     0.390900000000     0.958900000000     0          
O205     O      0.889000000000     0.418700000000     0.137300000000     0          
O206     O      0.939600000000     0.344000000000     0.074100000000     0          
C207     C      0.901200000000     0.365700000000     0.119300000000     0          
C208     C      0.861700000000     0.325700000000     0.158300000000     0          
C209     C      0.816200000000     0.347600000000     0.197100000000     0          
H210     H      0.810100000000     0.387800000000     0.199200000000     0          
C211     C      0.779800000000     0.310700000000     0.233000000000     0          
H212     H      0.748800000000     0.325700000000     0.259600000000     0          
C213     C      0.788800000000     0.251800000000     0.230040000000     0          
C214     C      0.834200000000     0.229900000000     0.191200000000     0          
H215     H      0.840300000000     0.189700000000     0.189100000000     0          
C216     C      0.870600000000     0.266800000000     0.155300000000     0          
H217     H      0.901600000000     0.251800000000     0.128700000000     0          
H218     H      0.586500000000     0.609100000000     0.958900000000     0          
Zr219    Zr     0.500000000000     0.924730000000     0.592320000000     0          
O220     O      0.500000000000     0.950100000000     0.703300000000     0          
C221     C      0.500000000000     0.948470000000     0.851000000000     0          
H222     H      0.500000000000     0.913200000000     0.826100000000     0          
C223     C      0.500000000000     0.948470000000     0.923900000000     0          
H224     H      0.500000000000     0.913200000000     0.948700000000     0          
O225     O      0.500000000000     0.833100000000     0.558800000000     0          
C226     C      0.500000000000     0.713600000000     0.562500000000     0          
H227     H      0.500000000000     0.734000000000     0.605600000000     0          
C228     C      0.500000000000     0.653800000000     0.562800000000     0          
H229     H      0.500000000000     0.633500000000     0.606000000000     0          
Zr230    Zr     0.500000000000     0.075270000000     0.592320000000     0          
O231     O      0.500000000000     0.049900000000     0.703300000000     0          
C232     C      0.500000000000     0.051530000000     0.851000000000     0          
H233     H      0.500000000000     0.086800000000     0.826100000000     0          
C234     C      0.500000000000     0.051530000000     0.923900000000     0          
H235     H      0.500000000000     0.086800000000     0.948700000000     0          
O236     O      0.500000000000     0.166900000000     0.558800000000     0          
C237     C      0.500000000000     0.286400000000     0.562500000000     0          
H238     H      0.500000000000     0.266000000000     0.605600000000     0          
C239     C      0.500000000000     0.346200000000     0.562800000000     0          
H240     H      0.500000000000     0.366500000000     0.606000000000     0          
Zr241    Zr     0.075270000000     0.500000000000     0.092320000000     0          
O242     O      0.049900000000     0.500000000000     0.203300000000     0          
C243     C      0.051530000000     0.500000000000     0.351000000000     0          
H244     H      0.086800000000     0.500000000000     0.326100000000     0          
C245     C      0.051530000000     0.500000000000     0.423900000000     0          
H246     H      0.086800000000     0.500000000000     0.448700000000     0          
O247     O      0.166900000000     0.500000000000     0.058800000000     0          
C248     C      0.286400000000     0.500000000000     0.062500000000     0          
H249     H      0.266000000000     0.500000000000     0.105600000000     0          
C250     C      0.346200000000     0.500000000000     0.062800000000     0          
H251     H      0.366500000000     0.500000000000     0.106000000000     0          
Zr252    Zr     0.924730000000     0.500000000000     0.092320000000     0          
O253     O      0.950100000000     0.500000000000     0.203300000000     0          
C254     C      0.948470000000     0.500000000000     0.351000000000     0          
H255     H      0.913200000000     0.500000000000     0.326100000000     0          
C256     C      0.948470000000     0.500000000000     0.423900000000     0          
H257     H      0.913200000000     0.500000000000     0.448700000000     0          
O258     O      0.833100000000     0.500000000000     0.058800000000     0          
C259     C      0.713600000000     0.500000000000     0.062500000000     0          
H260     H      0.734000000000     0.500000000000     0.105600000000     0          
C261     C      0.653800000000     0.500000000000     0.062800000000     0          
H262     H      0.633500000000     0.500000000000     0.106000000000     0          
Zr263    Zr     0.500000000000     0.924730000000     0.407680000000     0          
O264     O      0.500000000000     0.950100000000     0.296700000000     0          
C265     C      0.500000000000     0.948470000000     0.149000000000     0          
H266     H      0.500000000000     0.913200000000     0.173900000000     0          
C267     C      0.500000000000     0.948470000000     0.076100000000     0          
H268     H      0.500000000000     0.913200000000     0.051300000000     0          
O269     O      0.500000000000     0.833100000000     0.441200000000     0          
C270     C      0.500000000000     0.713600000000     0.437500000000     0          
H271     H      0.500000000000     0.734000000000     0.394400000000     0          
C272     C      0.500000000000     0.653800000000     0.437200000000     0          
H273     H      0.500000000000     0.633500000000     0.394000000000     0          
Zr274    Zr     0.500000000000     0.075270000000     0.407680000000     0          
O275     O      0.500000000000     0.049900000000     0.296700000000     0          
C276     C      0.500000000000     0.051530000000     0.149000000000     0          
H277     H      0.500000000000     0.086800000000     0.173900000000     0          
C278     C      0.500000000000     0.051530000000     0.076100000000     0          
H279     H      0.500000000000     0.086800000000     0.051300000000     0          
O280     O      0.500000000000     0.166900000000     0.441200000000     0          
C281     C      0.500000000000     0.286400000000     0.437500000000     0          
H282     H      0.500000000000     0.266000000000     0.394400000000     0          
C283     C      0.500000000000     0.346200000000     0.437200000000     0          
H284     H      0.500000000000     0.366500000000     0.394000000000     0          
Zr285    Zr     0.924730000000     0.500000000000     0.907680000000     0          
O286     O      0.950100000000     0.500000000000     0.796700000000     0          
C287     C      0.948470000000     0.500000000000     0.649000000000     0          
H288     H      0.913200000000     0.500000000000     0.673900000000     0          
C289     C      0.948470000000     0.500000000000     0.576100000000     0          
H290     H      0.913200000000     0.500000000000     0.551300000000     0          
O291     O      0.833100000000     0.500000000000     0.941200000000     0          
C292     C      0.713600000000     0.500000000000     0.937500000000     0          
H293     H      0.734000000000     0.500000000000     0.894400000000     0          
C294     C      0.653800000000     0.500000000000     0.937200000000     0          
H295     H      0.633500000000     0.500000000000     0.894000000000     0          
Zr296    Zr     0.075270000000     0.500000000000     0.907680000000     0          
O297     O      0.049900000000     0.500000000000     0.796700000000     0          
C298     C      0.051530000000     0.500000000000     0.649000000000     0          
H299     H      0.086800000000     0.500000000000     0.673900000000     0          
C300     C      0.051530000000     0.500000000000     0.576100000000     0          
H301     H      0.086800000000     0.500000000000     0.551300000000     0          
O302     O      0.166900000000     0.500000000000     0.941200000000     0          
C303     C      0.286400000000     0.500000000000     0.937500000000     0          
H304     H      0.266000000000     0.500000000000     0.894400000000     0          
C305     C      0.346200000000     0.500000000000     0.937200000000     0          
H306     H      0.366500000000     0.500000000000     0.894000000000     0          
Zr307    Zr     0.392020000000     0.000000000000     0.500000000000     0          
Zr308    Zr     0.607980000000     0.000000000000     0.500000000000     0          
Zr309    Zr     0.000000000000     0.392020000000     0.000000000000     0          
Zr310    Zr     0.000000000000     0.607980000000     0.000000000000     0          
O311     O      0.450800000000     0.924900000000     0.500000000000     0          
C312     C      0.551620000000     0.529790000000     0.500000000000     0          
C313     C      0.607100000000     0.562800000000     0.500000000000     0          
H314     H      0.638600000000     0.536400000000     0.500000000000     0          
O315     O      0.549200000000     0.075100000000     0.500000000000     0          
C316     C      0.448380000000     0.470210000000     0.500000000000     0          
C317     C      0.392900000000     0.437200000000     0.500000000000     0          
H318     H      0.361400000000     0.463600000000     0.500000000000     0          
O319     O      0.075100000000     0.450800000000     0.000000000000     0          
C320     C      0.470210000000     0.551620000000     0.000000000000     0          
H321     H      0.450900000000     0.586600000000     0.000000000000     0          
O322     O      0.924900000000     0.549200000000     0.000000000000     0          
C323     C      0.529790000000     0.448380000000     0.000000000000     0          
H324     H      0.549100000000     0.413400000000     0.000000000000     0          
O325     O      0.549200000000     0.924900000000     0.500000000000     0          
C326     C      0.448380000000     0.529790000000     0.500000000000     0          
H327     H      0.413400000000     0.549100000000     0.500000000000     0          
O328     O      0.450800000000     0.075100000000     0.500000000000     0          
C329     C      0.551620000000     0.470210000000     0.500000000000     0          
H330     H      0.586600000000     0.450900000000     0.500000000000     0          
O331     O      0.924900000000     0.450800000000     0.000000000000     0          
C332     C      0.529790000000     0.551620000000     0.000000000000     0          
C333     C      0.562800000000     0.607100000000     0.000000000000     0          
H334     H      0.536400000000     0.638600000000     0.000000000000     0          
O335     O      0.075100000000     0.549200000000     0.000000000000     0          
C336     C      0.470210000000     0.448380000000     0.000000000000     0          
C337     C      0.437200000000     0.392900000000     0.000000000000     0          
H338     H      0.463600000000     0.361400000000     0.000000000000     0          
O339     O      0.446100000000     0.000000000000     0.591300000000     0          
O340     O      0.553900000000     0.000000000000     0.591300000000     0          
O341     O      0.000000000000     0.446100000000     0.091300000000     0          
O342     O      0.000000000000     0.553900000000     0.091300000000     0          
O343     O      0.553900000000     0.000000000000     0.408700000000     0          
O344     O      0.446100000000     0.000000000000     0.408700000000     0          
O345     O      0.000000000000     0.446100000000     0.908700000000     0          
O346     O      0.000000000000     0.553900000000     0.908700000000     0          
C347     C      0.500000000000     0.000000000000     0.735400000000     0          
C348     C      0.500000000000     0.000000000000     0.814500000000     0          
C349     C      0.500000000000     0.000000000000     0.960400000000     0          
C350     C      0.000000000000     0.500000000000     0.235400000000     0          
C351     C      0.000000000000     0.500000000000     0.314500000000     0          
C352     C      0.000000000000     0.500000000000     0.460400000000     0          
C353     C      0.500000000000     0.000000000000     0.264600000000     0          
C354     C      0.500000000000     0.000000000000     0.185500000000     0          
C355     C      0.500000000000     0.000000000000     0.039600000000     0          
C356     C      0.000000000000     0.500000000000     0.764600000000     0          
C357     C      0.000000000000     0.500000000000     0.685500000000     0          
C358     C      0.000000000000     0.500000000000     0.539600000000     0          
C359     C      0.500000000000     0.807900000000     0.500000000000     0          
C360     C      0.500000000000     0.743300000000     0.500000000000     0          
C361     C      0.500000000000     0.624100000000     0.500000000000     0          
C362     C      0.500000000000     0.559500000000     0.500000000000     0          
C363     C      0.500000000000     0.192100000000     0.500000000000     0          
C364     C      0.500000000000     0.256700000000     0.500000000000     0          
C365     C      0.500000000000     0.375900000000     0.500000000000     0          
C366     C      0.500000000000     0.440500000000     0.500000000000     0          
C367     C      0.192100000000     0.500000000000     0.000000000000     0          
C368     C      0.256700000000     0.500000000000     0.000000000000     0          
C369     C      0.375900000000     0.500000000000     0.000000000000     0          
C370     C      0.440500000000     0.500000000000     0.000000000000     0          
C371     C      0.807900000000     0.500000000000     0.000000000000     0          
C372     C      0.743300000000     0.500000000000     0.000000000000     0          
C373     C      0.624100000000     0.500000000000     0.000000000000     0          
C374     C      0.559500000000     0.500000000000     0.000000000000     0          


