data_FINLOG

_audit_creation_method RASPA-1.0
_audit_creation_date 2020-11-2
_audit_author_name 'Rocio Bueno-Perez'

_cell_length_a    25.1372
_cell_length_b    28.199
_cell_length_c    15.8108
_cell_angle_alpha 90
_cell_angle_beta  90
_cell_angle_gamma 90
_cell_volume      11207.4

_symmetry_cell_setting          triclinic
_symmetry_space_group_name_Hall 'P 1'
_symmetry_space_group_name_H-M  'P 1'
_symmetry_Int_Tables_number     1

_symmetry_equiv_pos_as_xyz 'x,y,z'

loop_
_atom_site_label
_atom_site_type_symbol
_atom_site_fract_x
_atom_site_fract_y
_atom_site_fract_z
_atom_site_charge
C1       C      0.547600000000     0.608960000000     0.383300000000     0          
H2       H      0.580300000000     0.595100000000     0.400400000000     0          
Zr3      Zr     0.724150000000     0.812590000000     0.353680000000     0          
C4       C      0.663000000000     0.671000000000     0.047200000000     0          
O5       O      0.598130000000     0.702860000000     0.249990000000     0          
O6       O      0.640160000000     0.661290000000     0.351400000000     0          
O7       O      0.717800000000     0.659340000000     0.051100000000     0          
O8       O      0.705390000000     0.812030000000     0.222100000000     0          
O9       O      0.629530000000     0.703540000000     0.091800000000     0          
O10      O      0.693030000000     0.803440000000     0.483000000000     0          
C11      C      0.547670000000     0.650510000000     0.334600000000     0          
C12      C      0.598810000000     0.673280000000     0.310600000000     0          
C13      C      0.537700000000     0.509200000000     0.439900000000     0          
H14      H      0.563900000000     0.514800000000     0.397800000000     0          
C15      C      0.047600000000     0.108960000000     0.883300000000     0          
H16      H      0.080300000000     0.095100000000     0.900400000000     0          
Zr17     Zr     0.224150000000     0.312590000000     0.853680000000     0          
C18      C      0.163000000000     0.171000000000     0.547200000000     0          
O19      O      0.098130000000     0.202860000000     0.749990000000     0          
O20      O      0.140160000000     0.161290000000     0.851400000000     0          
O21      O      0.217800000000     0.159340000000     0.551100000000     0          
O22      O      0.205390000000     0.312030000000     0.722100000000     0          
O23      O      0.129530000000     0.203540000000     0.591800000000     0          
O24      O      0.193030000000     0.303440000000     0.983000000000     0          
C25      C      0.047670000000     0.150510000000     0.834600000000     0          
C26      C      0.098810000000     0.173280000000     0.810600000000     0          
C27      C      0.037700000000     0.009200000000     0.939900000000     0          
H28      H      0.063900000000     0.014800000000     0.897800000000     0          
C29      C      0.452400000000     0.891040000000     0.383300000000     0          
H30      H      0.419700000000     0.904900000000     0.400400000000     0          
Zr31     Zr     0.275850000000     0.687410000000     0.353680000000     0          
C32      C      0.337000000000     0.829000000000     0.047200000000     0          
O33      O      0.401870000000     0.797140000000     0.249990000000     0          
O34      O      0.359840000000     0.838710000000     0.351400000000     0          
O35      O      0.282200000000     0.840660000000     0.051100000000     0          
O36      O      0.294610000000     0.687970000000     0.222100000000     0          
O37      O      0.370470000000     0.796460000000     0.091800000000     0          
O38      O      0.306970000000     0.696560000000     0.483000000000     0          
C39      C      0.452330000000     0.849490000000     0.334600000000     0          
C40      C      0.401190000000     0.826720000000     0.310600000000     0          
C41      C      0.461100000000     0.966000000000     0.512900000000     0          
H42      H      0.433800000000     0.943300000000     0.522100000000     0          
C43      C      0.952400000000     0.391040000000     0.883300000000     0          
H44      H      0.919700000000     0.404900000000     0.900400000000     0          
Zr45     Zr     0.775850000000     0.187410000000     0.853680000000     0          
C46      C      0.837000000000     0.329000000000     0.547200000000     0          
O47      O      0.901870000000     0.297140000000     0.749990000000     0          
O48      O      0.859840000000     0.338710000000     0.851400000000     0          
O49      O      0.782200000000     0.340660000000     0.551100000000     0          
O50      O      0.794610000000     0.187970000000     0.722100000000     0          
O51      O      0.870470000000     0.296460000000     0.591800000000     0          
O52      O      0.806970000000     0.196560000000     0.983000000000     0          
C53      C      0.952330000000     0.349490000000     0.834600000000     0          
C54      C      0.901190000000     0.326720000000     0.810600000000     0          
C55      C      0.962300000000     0.490800000000     0.939900000000     0          
H56      H      0.936100000000     0.485200000000     0.897800000000     0          
C57      C      0.452400000000     0.108960000000     0.616700000000     0          
H58      H      0.419700000000     0.095100000000     0.599600000000     0          
Zr59     Zr     0.275850000000     0.312590000000     0.646320000000     0          
C60      C      0.337000000000     0.171000000000     0.952800000000     0          
O61      O      0.401870000000     0.202860000000     0.750010000000     0          
O62      O      0.359840000000     0.161290000000     0.648600000000     0          
O63      O      0.282200000000     0.159340000000     0.948900000000     0          
O64      O      0.294610000000     0.312030000000     0.777900000000     0          
O65      O      0.370470000000     0.203540000000     0.908200000000     0          
O66      O      0.306970000000     0.303440000000     0.517000000000     0          
C67      C      0.452330000000     0.150510000000     0.665400000000     0          
C68      C      0.401190000000     0.173280000000     0.689400000000     0          
C69      C      0.462300000000     0.009200000000     0.560100000000     0          
H70      H      0.436100000000     0.014800000000     0.602200000000     0          
C71      C      0.952400000000     0.608960000000     0.116700000000     0          
H72      H      0.919700000000     0.595100000000     0.099600000000     0          
Zr73     Zr     0.775850000000     0.812590000000     0.146320000000     0          
C74      C      0.837000000000     0.671000000000     0.452800000000     0          
O75      O      0.901870000000     0.702860000000     0.250010000000     0          
O76      O      0.859840000000     0.661290000000     0.148600000000     0          
O77      O      0.782200000000     0.659340000000     0.448900000000     0          
O78      O      0.794610000000     0.812030000000     0.277900000000     0          
O79      O      0.870470000000     0.703540000000     0.408200000000     0          
O80      O      0.806970000000     0.803440000000     0.017000000000     0          
C81      C      0.952330000000     0.650510000000     0.165400000000     0          
C82      C      0.901190000000     0.673280000000     0.189400000000     0          
C83      C      0.961100000000     0.534000000000     0.987100000000     0          
H84      H      0.933800000000     0.556700000000     0.977900000000     0          
C85      C      0.547600000000     0.391040000000     0.616700000000     0          
H86      H      0.580300000000     0.404900000000     0.599600000000     0          
Zr87     Zr     0.724150000000     0.187410000000     0.646320000000     0          
C88      C      0.663000000000     0.329000000000     0.952800000000     0          
O89      O      0.598130000000     0.297140000000     0.750010000000     0          
O90      O      0.640160000000     0.338710000000     0.648600000000     0          
O91      O      0.717800000000     0.340660000000     0.948900000000     0          
O92      O      0.705390000000     0.187970000000     0.777900000000     0          
O93      O      0.629530000000     0.296460000000     0.908200000000     0          
O94      O      0.693030000000     0.196560000000     0.517000000000     0          
C95      C      0.547670000000     0.349490000000     0.665400000000     0          
C96      C      0.598810000000     0.326720000000     0.689400000000     0          
C97      C      0.538900000000     0.466000000000     0.487100000000     0          
H98      H      0.566200000000     0.443300000000     0.477900000000     0          
C99      C      0.047600000000     0.891040000000     0.116700000000     0          
H100     H      0.080300000000     0.904900000000     0.099600000000     0          
Zr101    Zr     0.224150000000     0.687410000000     0.146320000000     0          
C102     C      0.163000000000     0.829000000000     0.452800000000     0          
O103     O      0.098130000000     0.797140000000     0.250010000000     0          
O104     O      0.140160000000     0.838710000000     0.148600000000     0          
O105     O      0.217800000000     0.840660000000     0.448900000000     0          
O106     O      0.205390000000     0.687970000000     0.277900000000     0          
O107     O      0.129530000000     0.796460000000     0.408200000000     0          
O108     O      0.193030000000     0.696560000000     0.017000000000     0          
C109     C      0.047670000000     0.849490000000     0.165400000000     0          
C110     C      0.098810000000     0.826720000000     0.189400000000     0          
C111     C      0.038900000000     0.966000000000     0.987100000000     0          
H112     H      0.066200000000     0.943300000000     0.977900000000     0          
C113     C      0.452400000000     0.391040000000     0.616700000000     0          
H114     H      0.419700000000     0.404900000000     0.599600000000     0          
Zr115    Zr     0.275850000000     0.187410000000     0.646320000000     0          
C116     C      0.337000000000     0.329000000000     0.952800000000     0          
O117     O      0.401870000000     0.297140000000     0.750010000000     0          
O118     O      0.359840000000     0.338710000000     0.648600000000     0          
O119     O      0.282200000000     0.340660000000     0.948900000000     0          
O120     O      0.294610000000     0.187970000000     0.777900000000     0          
O121     O      0.370470000000     0.296460000000     0.908200000000     0          
O122     O      0.306970000000     0.196560000000     0.517000000000     0          
C123     C      0.452330000000     0.349490000000     0.665400000000     0          
C124     C      0.401190000000     0.326720000000     0.689400000000     0          
C125     C      0.462300000000     0.490800000000     0.560100000000     0          
H126     H      0.436100000000     0.485200000000     0.602200000000     0          
C127     C      0.952400000000     0.891040000000     0.116700000000     0          
H128     H      0.919700000000     0.904900000000     0.099600000000     0          
Zr129    Zr     0.775850000000     0.687410000000     0.146320000000     0          
C130     C      0.837000000000     0.829000000000     0.452800000000     0          
O131     O      0.901870000000     0.797140000000     0.250010000000     0          
O132     O      0.859840000000     0.838710000000     0.148600000000     0          
O133     O      0.782200000000     0.840660000000     0.448900000000     0          
O134     O      0.794610000000     0.687970000000     0.277900000000     0          
O135     O      0.870470000000     0.796460000000     0.408200000000     0          
O136     O      0.806970000000     0.696560000000     0.017000000000     0          
C137     C      0.952330000000     0.849490000000     0.165400000000     0          
C138     C      0.901190000000     0.826720000000     0.189400000000     0          
C139     C      0.962300000000     0.990800000000     0.060100000000     0          
H140     H      0.936100000000     0.985200000000     0.102200000000     0          
C141     C      0.547600000000     0.108960000000     0.616700000000     0          
H142     H      0.580300000000     0.095100000000     0.599600000000     0          
Zr143    Zr     0.724150000000     0.312590000000     0.646320000000     0          
C144     C      0.663000000000     0.171000000000     0.952800000000     0          
O145     O      0.598130000000     0.202860000000     0.750010000000     0          
O146     O      0.640160000000     0.161290000000     0.648600000000     0          
O147     O      0.717800000000     0.159340000000     0.948900000000     0          
O148     O      0.705390000000     0.312030000000     0.777900000000     0          
O149     O      0.629530000000     0.203540000000     0.908200000000     0          
O150     O      0.693030000000     0.303440000000     0.517000000000     0          
C151     C      0.547670000000     0.150510000000     0.665400000000     0          
C152     C      0.598810000000     0.173280000000     0.689400000000     0          
C153     C      0.538900000000     0.034000000000     0.487100000000     0          
H154     H      0.566200000000     0.056700000000     0.477900000000     0          
C155     C      0.047600000000     0.608960000000     0.116700000000     0          
H156     H      0.080300000000     0.595100000000     0.099600000000     0          
Zr157    Zr     0.224150000000     0.812590000000     0.146320000000     0          
C158     C      0.163000000000     0.671000000000     0.452800000000     0          
O159     O      0.098130000000     0.702860000000     0.250010000000     0          
O160     O      0.140160000000     0.661290000000     0.148600000000     0          
O161     O      0.217800000000     0.659340000000     0.448900000000     0          
O162     O      0.205390000000     0.812030000000     0.277900000000     0          
O163     O      0.129530000000     0.703540000000     0.408200000000     0          
O164     O      0.193030000000     0.803440000000     0.017000000000     0          
C165     C      0.047670000000     0.650510000000     0.165400000000     0          
C166     C      0.098810000000     0.673280000000     0.189400000000     0          
C167     C      0.037700000000     0.509200000000     0.060100000000     0          
H168     H      0.063900000000     0.514800000000     0.102200000000     0          
C169     C      0.547600000000     0.891040000000     0.383300000000     0          
H170     H      0.580300000000     0.904900000000     0.400400000000     0          
Zr171    Zr     0.724150000000     0.687410000000     0.353680000000     0          
C172     C      0.663000000000     0.829000000000     0.047200000000     0          
O173     O      0.598130000000     0.797140000000     0.249990000000     0          
O174     O      0.640160000000     0.838710000000     0.351400000000     0          
O175     O      0.717800000000     0.840660000000     0.051100000000     0          
O176     O      0.705390000000     0.687970000000     0.222100000000     0          
O177     O      0.629530000000     0.796460000000     0.091800000000     0          
O178     O      0.693030000000     0.696560000000     0.483000000000     0          
C179     C      0.547670000000     0.849490000000     0.334600000000     0          
C180     C      0.598810000000     0.826720000000     0.310600000000     0          
C181     C      0.537700000000     0.990800000000     0.439900000000     0          
H182     H      0.563900000000     0.985200000000     0.397800000000     0          
C183     C      0.047600000000     0.391040000000     0.883300000000     0          
H184     H      0.080300000000     0.404900000000     0.900400000000     0          
Zr185    Zr     0.224150000000     0.187410000000     0.853680000000     0          
C186     C      0.163000000000     0.329000000000     0.547200000000     0          
O187     O      0.098130000000     0.297140000000     0.749990000000     0          
O188     O      0.140160000000     0.338710000000     0.851400000000     0          
O189     O      0.217800000000     0.340660000000     0.551100000000     0          
O190     O      0.205390000000     0.187970000000     0.722100000000     0          
O191     O      0.129530000000     0.296460000000     0.591800000000     0          
O192     O      0.193030000000     0.196560000000     0.983000000000     0          
C193     C      0.047670000000     0.349490000000     0.834600000000     0          
C194     C      0.098810000000     0.326720000000     0.810600000000     0          
C195     C      0.038900000000     0.466000000000     0.012900000000     0          
H196     H      0.066200000000     0.443300000000     0.022100000000     0          
C197     C      0.452400000000     0.608960000000     0.383300000000     0          
H198     H      0.419700000000     0.595100000000     0.400400000000     0          
Zr199    Zr     0.275850000000     0.812590000000     0.353680000000     0          
C200     C      0.337000000000     0.671000000000     0.047200000000     0          
O201     O      0.401870000000     0.702860000000     0.249990000000     0          
O202     O      0.359840000000     0.661290000000     0.351400000000     0          
O203     O      0.282200000000     0.659340000000     0.051100000000     0          
O204     O      0.294610000000     0.812030000000     0.222100000000     0          
O205     O      0.370470000000     0.703540000000     0.091800000000     0          
O206     O      0.306970000000     0.803440000000     0.483000000000     0          
C207     C      0.452330000000     0.650510000000     0.334600000000     0          
C208     C      0.401190000000     0.673280000000     0.310600000000     0          
C209     C      0.461100000000     0.534000000000     0.512900000000     0          
H210     H      0.433800000000     0.556700000000     0.522100000000     0          
C211     C      0.952400000000     0.108960000000     0.883300000000     0          
H212     H      0.919700000000     0.095100000000     0.900400000000     0          
Zr213    Zr     0.775850000000     0.312590000000     0.853680000000     0          
C214     C      0.837000000000     0.171000000000     0.547200000000     0          
O215     O      0.901870000000     0.202860000000     0.749990000000     0          
O216     O      0.859840000000     0.161290000000     0.851400000000     0          
O217     O      0.782200000000     0.159340000000     0.551100000000     0          
O218     O      0.794610000000     0.312030000000     0.722100000000     0          
O219     O      0.870470000000     0.203540000000     0.591800000000     0          
O220     O      0.806970000000     0.303440000000     0.983000000000     0          
C221     C      0.952330000000     0.150510000000     0.834600000000     0          
C222     C      0.901190000000     0.173280000000     0.810600000000     0          
C223     C      0.961100000000     0.034000000000     0.012900000000     0          
H224     H      0.933800000000     0.056700000000     0.022100000000     0          
Zr225    Zr     0.658280000000     0.750000000000     0.194820000000     0          
O226     O      0.728880000000     0.750000000000     0.117300000000     0          
O227     O      0.679500000000     0.750000000000     0.326600000000     0          
C228     C      0.678700000000     0.750000000000     0.505000000000     0          
Zr229    Zr     0.158280000000     0.250000000000     0.694820000000     0          
O230     O      0.228880000000     0.250000000000     0.617300000000     0          
O231     O      0.179500000000     0.250000000000     0.826600000000     0          
C232     C      0.178700000000     0.250000000000     0.005000000000     0          
Zr233    Zr     0.341720000000     0.750000000000     0.194820000000     0          
O234     O      0.271120000000     0.750000000000     0.117300000000     0          
O235     O      0.320500000000     0.750000000000     0.326600000000     0          
C236     C      0.321300000000     0.750000000000     0.505000000000     0          
Zr237    Zr     0.841720000000     0.250000000000     0.694820000000     0          
O238     O      0.771120000000     0.250000000000     0.617300000000     0          
O239     O      0.820500000000     0.250000000000     0.826600000000     0          
C240     C      0.821300000000     0.250000000000     0.005000000000     0          
Zr241    Zr     0.341720000000     0.250000000000     0.805180000000     0          
O242     O      0.271120000000     0.250000000000     0.882700000000     0          
O243     O      0.320500000000     0.250000000000     0.673400000000     0          
C244     C      0.321300000000     0.250000000000     0.495000000000     0          
Zr245    Zr     0.841720000000     0.750000000000     0.305180000000     0          
O246     O      0.771120000000     0.750000000000     0.382700000000     0          
O247     O      0.820500000000     0.750000000000     0.173400000000     0          
C248     C      0.821300000000     0.750000000000     0.995000000000     0          
Zr249    Zr     0.658280000000     0.250000000000     0.805180000000     0          
O250     O      0.728880000000     0.250000000000     0.882700000000     0          
O251     O      0.679500000000     0.250000000000     0.673400000000     0          
C252     C      0.678700000000     0.250000000000     0.495000000000     0          
Zr253    Zr     0.158280000000     0.750000000000     0.305180000000     0          
O254     O      0.228880000000     0.750000000000     0.382700000000     0          
O255     O      0.179500000000     0.750000000000     0.173400000000     0          
C256     C      0.178700000000     0.750000000000     0.995000000000     0          
C257     C      0.500000000000     0.588200000000     0.406300000000     0          
C258     C      0.500000000000     0.542000000000     0.454200000000     0          
C259     C      0.500000000000     0.671060000000     0.307000000000     0          
H260     H      0.500000000000     0.698000000000     0.270900000000     0          
C261     C      0.000000000000     0.088200000000     0.906300000000     0          
C262     C      0.000000000000     0.042000000000     0.954200000000     0          
C263     C      0.000000000000     0.171060000000     0.807000000000     0          
H264     H      0.000000000000     0.198000000000     0.770900000000     0          
C265     C      0.500000000000     0.911800000000     0.406300000000     0          
C266     C      0.500000000000     0.958000000000     0.454200000000     0          
C267     C      0.500000000000     0.828940000000     0.307000000000     0          
H268     H      0.500000000000     0.802000000000     0.270900000000     0          
C269     C      0.000000000000     0.411800000000     0.906300000000     0          
C270     C      0.000000000000     0.458000000000     0.954200000000     0          
C271     C      0.000000000000     0.328940000000     0.807000000000     0          
H272     H      0.000000000000     0.302000000000     0.770900000000     0          
C273     C      0.500000000000     0.088200000000     0.593700000000     0          
C274     C      0.500000000000     0.042000000000     0.545800000000     0          
C275     C      0.500000000000     0.171060000000     0.693000000000     0          
H276     H      0.500000000000     0.198000000000     0.729100000000     0          
C277     C      0.000000000000     0.588200000000     0.093700000000     0          
C278     C      0.000000000000     0.542000000000     0.045800000000     0          
C279     C      0.000000000000     0.671060000000     0.193000000000     0          
H280     H      0.000000000000     0.698000000000     0.229100000000     0          
C281     C      0.500000000000     0.411800000000     0.593700000000     0          
C282     C      0.500000000000     0.458000000000     0.545800000000     0          
C283     C      0.500000000000     0.328940000000     0.693000000000     0          
H284     H      0.500000000000     0.302000000000     0.729100000000     0          
C285     C      0.000000000000     0.911800000000     0.093700000000     0          
C286     C      0.000000000000     0.958000000000     0.045800000000     0          
C287     C      0.000000000000     0.828940000000     0.193000000000     0          
H288     H      0.000000000000     0.802000000000     0.229100000000     0          


