data_FINLUM

_audit_creation_method RASPA-1.0
_audit_creation_date 2020-11-2
_audit_author_name 'Rocio Bueno-Perez'

_cell_length_a    25.238
_cell_length_b    26.867
_cell_length_c    16.779
_cell_angle_alpha 90
_cell_angle_beta  90
_cell_angle_gamma 90
_cell_volume      11377.3

_symmetry_cell_setting          triclinic
_symmetry_space_group_name_Hall 'P 1'
_symmetry_space_group_name_H-M  'P 1'
_symmetry_Int_Tables_number     1

_symmetry_equiv_pos_as_xyz 'x,y,z'

loop_
_atom_site_label
_atom_site_type_symbol
_atom_site_fract_x
_atom_site_fract_y
_atom_site_fract_z
_atom_site_charge
Zr1      Zr     0.223450000000     0.184620000000     0.653180000000     0          
O2       O      0.401750000000     0.299500000000     0.743800000000     0          
O3       O      0.206100000000     0.184200000000     0.776600000000     0          
O4       O      0.362300000000     0.201200000000     0.597100000000     0          
O5       O      0.361600000000     0.342100000000     0.838600000000     0          
C6       C      0.401000000000     0.328300000000     0.800600000000     0          
O7       O      0.287700000000     0.157800000000     0.568600000000     0          
C8       C      0.452800000000     0.352100000000     0.822100000000     0          
C9       C      0.452500000000     0.392600000000     0.873500000000     0          
H10      H      0.419700000000     0.406200000000     0.890900000000     0          
C11      C      0.335500000000     0.171000000000     0.557500000000     0          
C12      C      0.538800000000     0.491000000000     0.955000000000     0          
Zr13     Zr     0.723450000000     0.684620000000     0.153180000000     0          
O14      O      0.901750000000     0.799500000000     0.243800000000     0          
O15      O      0.706100000000     0.684200000000     0.276600000000     0          
O16      O      0.862300000000     0.701200000000     0.097100000000     0          
O17      O      0.861600000000     0.842100000000     0.338600000000     0          
C18      C      0.901000000000     0.828300000000     0.300600000000     0          
O19      O      0.787700000000     0.657800000000     0.068600000000     0          
C20      C      0.952800000000     0.852100000000     0.322100000000     0          
C21      C      0.952500000000     0.892600000000     0.373500000000     0          
H22      H      0.919700000000     0.906200000000     0.390900000000     0          
C23      C      0.835500000000     0.671000000000     0.057500000000     0          
C24      C      0.037800000000     0.961000000000     0.513000000000     0          
Zr25     Zr     0.776550000000     0.315380000000     0.653180000000     0          
O26      O      0.598250000000     0.200500000000     0.743800000000     0          
O27      O      0.793900000000     0.315800000000     0.776600000000     0          
O28      O      0.637700000000     0.298800000000     0.597100000000     0          
O29      O      0.638400000000     0.157900000000     0.838600000000     0          
C30      C      0.599000000000     0.171700000000     0.800600000000     0          
O31      O      0.712300000000     0.342200000000     0.568600000000     0          
C32      C      0.547200000000     0.147900000000     0.822100000000     0          
C33      C      0.547500000000     0.107400000000     0.873500000000     0          
H34      H      0.580300000000     0.093800000000     0.890900000000     0          
C35      C      0.664500000000     0.329000000000     0.557500000000     0          
C36      C      0.462200000000     0.039000000000     0.013000000000     0          
Zr37     Zr     0.276550000000     0.815380000000     0.153180000000     0          
O38      O      0.098250000000     0.700500000000     0.243800000000     0          
O39      O      0.293900000000     0.815800000000     0.276600000000     0          
O40      O      0.137700000000     0.798800000000     0.097100000000     0          
O41      O      0.138400000000     0.657900000000     0.338600000000     0          
C42      C      0.099000000000     0.671700000000     0.300600000000     0          
O43      O      0.212300000000     0.842200000000     0.068600000000     0          
C44      C      0.047200000000     0.647900000000     0.322100000000     0          
C45      C      0.047500000000     0.607400000000     0.373500000000     0          
H46      H      0.080300000000     0.593800000000     0.390900000000     0          
C47      C      0.164500000000     0.829000000000     0.057500000000     0          
C48      C      0.962200000000     0.539000000000     0.513000000000     0          
Zr49     Zr     0.776550000000     0.684620000000     0.346820000000     0          
O50      O      0.598250000000     0.799500000000     0.256200000000     0          
O51      O      0.793900000000     0.684200000000     0.223400000000     0          
O52      O      0.637700000000     0.701200000000     0.402900000000     0          
O53      O      0.638400000000     0.842100000000     0.161400000000     0          
C54      C      0.599000000000     0.828300000000     0.199400000000     0          
O55      O      0.712300000000     0.657800000000     0.431400000000     0          
C56      C      0.547200000000     0.852100000000     0.177900000000     0          
C57      C      0.547500000000     0.892600000000     0.126500000000     0          
H58      H      0.580300000000     0.906200000000     0.109100000000     0          
C59      C      0.664500000000     0.671000000000     0.442500000000     0          
C60      C      0.461200000000     0.991000000000     0.045000000000     0          
Zr61     Zr     0.276550000000     0.184620000000     0.846820000000     0          
O62      O      0.098250000000     0.299500000000     0.756200000000     0          
O63      O      0.293900000000     0.184200000000     0.723400000000     0          
O64      O      0.137700000000     0.201200000000     0.902900000000     0          
O65      O      0.138400000000     0.342100000000     0.661400000000     0          
C66      C      0.099000000000     0.328300000000     0.699400000000     0          
O67      O      0.212300000000     0.157800000000     0.931400000000     0          
C68      C      0.047200000000     0.352100000000     0.677900000000     0          
C69      C      0.047500000000     0.392600000000     0.626500000000     0          
H70      H      0.080300000000     0.406200000000     0.609100000000     0          
C71      C      0.164500000000     0.171000000000     0.942500000000     0          
C72      C      0.961200000000     0.491000000000     0.545000000000     0          
Zr73     Zr     0.223450000000     0.815380000000     0.346820000000     0          
O74      O      0.401750000000     0.700500000000     0.256200000000     0          
O75      O      0.206100000000     0.815800000000     0.223400000000     0          
O76      O      0.362300000000     0.798800000000     0.402900000000     0          
O77      O      0.361600000000     0.657900000000     0.161400000000     0          
C78      C      0.401000000000     0.671700000000     0.199400000000     0          
O79      O      0.287700000000     0.842200000000     0.431400000000     0          
C80      C      0.452800000000     0.647900000000     0.177900000000     0          
C81      C      0.452500000000     0.607400000000     0.126500000000     0          
H82      H      0.419700000000     0.593800000000     0.109100000000     0          
C83      C      0.335500000000     0.829000000000     0.442500000000     0          
C84      C      0.537800000000     0.539000000000     0.987000000000     0          
Zr85     Zr     0.723450000000     0.315380000000     0.846820000000     0          
O86      O      0.901750000000     0.200500000000     0.756200000000     0          
O87      O      0.706100000000     0.315800000000     0.723400000000     0          
O88      O      0.862300000000     0.298800000000     0.902900000000     0          
O89      O      0.861600000000     0.157900000000     0.661400000000     0          
C90      C      0.901000000000     0.171700000000     0.699400000000     0          
O91      O      0.787700000000     0.342200000000     0.931400000000     0          
C92      C      0.952800000000     0.147900000000     0.677900000000     0          
C93      C      0.952500000000     0.107400000000     0.626500000000     0          
H94      H      0.919700000000     0.093800000000     0.609100000000     0          
C95      C      0.835500000000     0.329000000000     0.942500000000     0          
C96      C      0.038800000000     0.009000000000     0.545000000000     0          
Zr97     Zr     0.776550000000     0.815380000000     0.346820000000     0          
O98      O      0.598250000000     0.700500000000     0.256200000000     0          
O99      O      0.793900000000     0.815800000000     0.223400000000     0          
O100     O      0.637700000000     0.798800000000     0.402900000000     0          
O101     O      0.638400000000     0.657900000000     0.161400000000     0          
C102     C      0.599000000000     0.671700000000     0.199400000000     0          
O103     O      0.712300000000     0.842200000000     0.431400000000     0          
C104     C      0.547200000000     0.647900000000     0.177900000000     0          
C105     C      0.547500000000     0.607400000000     0.126500000000     0          
H106     H      0.580300000000     0.593800000000     0.109100000000     0          
C107     C      0.664500000000     0.829000000000     0.442500000000     0          
C108     C      0.461200000000     0.509000000000     0.045000000000     0          
Zr109    Zr     0.276550000000     0.315380000000     0.846820000000     0          
O110     O      0.098250000000     0.200500000000     0.756200000000     0          
O111     O      0.293900000000     0.315800000000     0.723400000000     0          
O112     O      0.137700000000     0.298800000000     0.902900000000     0          
O113     O      0.138400000000     0.157900000000     0.661400000000     0          
C114     C      0.099000000000     0.171700000000     0.699400000000     0          
O115     O      0.212300000000     0.342200000000     0.931400000000     0          
C116     C      0.047200000000     0.147900000000     0.677900000000     0          
C117     C      0.047500000000     0.107400000000     0.626500000000     0          
H118     H      0.080300000000     0.093800000000     0.609100000000     0          
C119     C      0.164500000000     0.329000000000     0.942500000000     0          
C120     C      0.962200000000     0.039000000000     0.487000000000     0          
Zr121    Zr     0.223450000000     0.684620000000     0.346820000000     0          
O122     O      0.401750000000     0.799500000000     0.256200000000     0          
O123     O      0.206100000000     0.684200000000     0.223400000000     0          
O124     O      0.362300000000     0.701200000000     0.402900000000     0          
O125     O      0.361600000000     0.842100000000     0.161400000000     0          
C126     C      0.401000000000     0.828300000000     0.199400000000     0          
O127     O      0.287700000000     0.657800000000     0.431400000000     0          
C128     C      0.452800000000     0.852100000000     0.177900000000     0          
C129     C      0.452500000000     0.892600000000     0.126500000000     0          
H130     H      0.419700000000     0.906200000000     0.109100000000     0          
C131     C      0.335500000000     0.671000000000     0.442500000000     0          
C132     C      0.537800000000     0.961000000000     0.987000000000     0          
Zr133    Zr     0.723450000000     0.184620000000     0.846820000000     0          
O134     O      0.901750000000     0.299500000000     0.756200000000     0          
O135     O      0.706100000000     0.184200000000     0.723400000000     0          
O136     O      0.862300000000     0.201200000000     0.902900000000     0          
O137     O      0.861600000000     0.342100000000     0.661400000000     0          
C138     C      0.901000000000     0.328300000000     0.699400000000     0          
O139     O      0.787700000000     0.157800000000     0.931400000000     0          
C140     C      0.952800000000     0.352100000000     0.677900000000     0          
C141     C      0.952500000000     0.392600000000     0.626500000000     0          
H142     H      0.919700000000     0.406200000000     0.609100000000     0          
C143     C      0.835500000000     0.171000000000     0.942500000000     0          
C144     C      0.037800000000     0.461000000000     0.487000000000     0          
Zr145    Zr     0.223450000000     0.315380000000     0.653180000000     0          
O146     O      0.401750000000     0.200500000000     0.743800000000     0          
O147     O      0.206100000000     0.315800000000     0.776600000000     0          
O148     O      0.362300000000     0.298800000000     0.597100000000     0          
O149     O      0.361600000000     0.157900000000     0.838600000000     0          
C150     C      0.401000000000     0.171700000000     0.800600000000     0          
O151     O      0.287700000000     0.342200000000     0.568600000000     0          
C152     C      0.452800000000     0.147900000000     0.822100000000     0          
C153     C      0.452500000000     0.107400000000     0.873500000000     0          
H154     H      0.419700000000     0.093800000000     0.890900000000     0          
C155     C      0.335500000000     0.329000000000     0.557500000000     0          
C156     C      0.538800000000     0.009000000000     0.955000000000     0          
Zr157    Zr     0.723450000000     0.815380000000     0.153180000000     0          
O158     O      0.901750000000     0.700500000000     0.243800000000     0          
O159     O      0.706100000000     0.815800000000     0.276600000000     0          
O160     O      0.862300000000     0.798800000000     0.097100000000     0          
O161     O      0.861600000000     0.657900000000     0.338600000000     0          
C162     C      0.901000000000     0.671700000000     0.300600000000     0          
O163     O      0.787700000000     0.842200000000     0.068600000000     0          
C164     C      0.952800000000     0.647900000000     0.322100000000     0          
C165     C      0.952500000000     0.607400000000     0.373500000000     0          
H166     H      0.919700000000     0.593800000000     0.390900000000     0          
C167     C      0.835500000000     0.829000000000     0.057500000000     0          
C168     C      0.038800000000     0.509000000000     0.455000000000     0          
Zr169    Zr     0.776550000000     0.184620000000     0.653180000000     0          
O170     O      0.598250000000     0.299500000000     0.743800000000     0          
O171     O      0.793900000000     0.184200000000     0.776600000000     0          
O172     O      0.637700000000     0.201200000000     0.597100000000     0          
O173     O      0.638400000000     0.342100000000     0.838600000000     0          
C174     C      0.599000000000     0.328300000000     0.800600000000     0          
O175     O      0.712300000000     0.157800000000     0.568600000000     0          
C176     C      0.547200000000     0.352100000000     0.822100000000     0          
C177     C      0.547500000000     0.392600000000     0.873500000000     0          
H178     H      0.580300000000     0.406200000000     0.890900000000     0          
C179     C      0.664500000000     0.171000000000     0.557500000000     0          
C180     C      0.462200000000     0.461000000000     0.013000000000     0          
Zr181    Zr     0.276550000000     0.684620000000     0.153180000000     0          
O182     O      0.098250000000     0.799500000000     0.243800000000     0          
O183     O      0.293900000000     0.684200000000     0.276600000000     0          
O184     O      0.137700000000     0.701200000000     0.097100000000     0          
O185     O      0.138400000000     0.842100000000     0.338600000000     0          
C186     C      0.099000000000     0.828300000000     0.300600000000     0          
O187     O      0.212300000000     0.657800000000     0.068600000000     0          
C188     C      0.047200000000     0.852100000000     0.322100000000     0          
C189     C      0.047500000000     0.892600000000     0.373500000000     0          
H190     H      0.080300000000     0.906200000000     0.390900000000     0          
C191     C      0.164500000000     0.671000000000     0.057500000000     0          
C192     C      0.961200000000     0.991000000000     0.455000000000     0          
Zr193    Zr     0.339860000000     0.250000000000     0.695120000000     0          
O194     O      0.266900000000     0.250000000000     0.622100000000     0          
O195     O      0.180900000000     0.250000000000     0.678300000000     0          
Zr196    Zr     0.839860000000     0.750000000000     0.195120000000     0          
O197     O      0.766900000000     0.750000000000     0.122100000000     0          
O198     O      0.680900000000     0.750000000000     0.178300000000     0          
Zr199    Zr     0.660140000000     0.250000000000     0.695120000000     0          
O200     O      0.733100000000     0.250000000000     0.622100000000     0          
O201     O      0.819100000000     0.250000000000     0.678300000000     0          
Zr202    Zr     0.160140000000     0.750000000000     0.195120000000     0          
O203     O      0.233100000000     0.750000000000     0.122100000000     0          
O204     O      0.319100000000     0.750000000000     0.178300000000     0          
Zr205    Zr     0.660140000000     0.750000000000     0.304880000000     0          
O206     O      0.733100000000     0.750000000000     0.377900000000     0          
O207     O      0.819100000000     0.750000000000     0.321700000000     0          
Zr208    Zr     0.160140000000     0.250000000000     0.804880000000     0          
O209     O      0.233100000000     0.250000000000     0.877900000000     0          
O210     O      0.319100000000     0.250000000000     0.821700000000     0          
Zr211    Zr     0.339860000000     0.750000000000     0.304880000000     0          
O212     O      0.266900000000     0.750000000000     0.377900000000     0          
O213     O      0.180900000000     0.750000000000     0.321700000000     0          
Zr214    Zr     0.839860000000     0.250000000000     0.804880000000     0          
O215     O      0.766900000000     0.250000000000     0.877900000000     0          
O216     O      0.680900000000     0.250000000000     0.821700000000     0          
C217     C      0.500000000000     0.331200000000     0.793900000000     0          
H218     H      0.500000000000     0.304100000000     0.757600000000     0          
C219     C      0.500000000000     0.413600000000     0.900000000000     0          
C220     C      0.500000000000     0.457800000000     0.954100000000     0          
C221     C      0.000000000000     0.831200000000     0.293900000000     0          
H222     H      0.000000000000     0.804100000000     0.257600000000     0          
C223     C      0.000000000000     0.913600000000     0.400000000000     0          
C224     C      0.000000000000     0.957800000000     0.454100000000     0          
C225     C      0.500000000000     0.168800000000     0.793900000000     0          
H226     H      0.500000000000     0.195900000000     0.757600000000     0          
C227     C      0.500000000000     0.086400000000     0.900000000000     0          
C228     C      0.500000000000     0.042200000000     0.954100000000     0          
C229     C      0.000000000000     0.668800000000     0.293900000000     0          
H230     H      0.000000000000     0.695900000000     0.257600000000     0          
C231     C      0.000000000000     0.586400000000     0.400000000000     0          
C232     C      0.000000000000     0.542200000000     0.454100000000     0          
C233     C      0.500000000000     0.831200000000     0.206100000000     0          
H234     H      0.500000000000     0.804100000000     0.242400000000     0          
C235     C      0.500000000000     0.913600000000     0.100000000000     0          
C236     C      0.500000000000     0.957800000000     0.045900000000     0          
C237     C      0.000000000000     0.331200000000     0.706100000000     0          
H238     H      0.000000000000     0.304100000000     0.742400000000     0          
C239     C      0.000000000000     0.413600000000     0.600000000000     0          
C240     C      0.000000000000     0.457800000000     0.545900000000     0          
C241     C      0.500000000000     0.668800000000     0.206100000000     0          
H242     H      0.500000000000     0.695900000000     0.242400000000     0          
C243     C      0.500000000000     0.586400000000     0.100000000000     0          
C244     C      0.500000000000     0.542200000000     0.045900000000     0          
C245     C      0.000000000000     0.168800000000     0.706100000000     0          
H246     H      0.000000000000     0.195900000000     0.742400000000     0          
C247     C      0.000000000000     0.086400000000     0.600000000000     0          
C248     C      0.000000000000     0.042200000000     0.545900000000     0          
H249     H      0.921200000000     0.981550000000     0.427300000000     0          
H250     H      0.062710000000     0.927020000000     0.528880000000     0          
H251     H      0.937290000000     0.072980000000     0.471120000000     0          
H252     H      0.078800000000     0.018450000000     0.572700000000     0          
H253     H      0.937290000000     0.572980000000     0.528880000000     0          
H254     H      0.921200000000     0.481550000000     0.572700000000     0          
H255     H      0.062710000000     0.427020000000     0.471120000000     0          
H256     H      0.078800000000     0.518450000000     0.427300000000     0          
H257     H      0.578800000000     0.481550000000     0.927300000000     0          
H258     H      0.562710000000     0.572980000000     0.971120000000     0          
H259     H      0.421200000000     0.518450000000     0.072700000000     0          
H260     H      0.437290000000     0.427020000000     0.028880000000     0          
H261     H      0.562710000000     0.927020000000     0.971120000000     0          
H262     H      0.578800000000     0.018450000000     0.927300000000     0          
H263     H      0.421200000000     0.981550000000     0.072700000000     0          
H264     H      0.437290000000     0.072980000000     0.028880000000     0          


