data_FINMEX

_audit_creation_method RASPA-1.0
_audit_creation_date 2020-11-2
_audit_author_name 'Rocio Bueno-Perez'

_cell_length_a    25.325
_cell_length_b    28.408
_cell_length_c    14.2372
_cell_angle_alpha 90
_cell_angle_beta  90
_cell_angle_gamma 90
_cell_volume      10242.7

_symmetry_cell_setting          triclinic
_symmetry_space_group_name_Hall 'P 1'
_symmetry_space_group_name_H-M  'P 1'
_symmetry_Int_Tables_number     1

_symmetry_equiv_pos_as_xyz 'x,y,z'

loop_
_atom_site_label
_atom_site_type_symbol
_atom_site_fract_x
_atom_site_fract_y
_atom_site_fract_z
_atom_site_charge
Zr1      Zr     0.277680000000     0.188150000000     0.363430000000     0          
O2       O      0.401400000000     0.296400000000     0.242200000000     0          
O3       O      0.293000000000     0.190000000000     0.218600000000     0          
O4       O      0.361200000000     0.337500000000     0.351200000000     0          
C5       C      0.401800000000     0.324000000000     0.310200000000     0          
C6       C      0.453200000000     0.389300000000     0.377700000000     0          
H7       H      0.421300000000     0.404100000000     0.390600000000     0          
C8       C      0.453000000000     0.346900000000     0.327500000000     0          
O9       O      0.361300000000     0.296700000000     0.068500000000     0          
C10      C      0.335800000000     0.327200000000     0.022900000000     0          
O11      O      0.284500000000     0.337000000000     0.033500000000     0          
C12      C      0.461100000000     0.491500000000     0.434000000000     0          
H13      H      0.435200000000     0.487200000000     0.388700000000     0          
Zr14     Zr     0.777680000000     0.688150000000     0.863430000000     0          
O15      O      0.901400000000     0.796400000000     0.742200000000     0          
O16      O      0.793000000000     0.690000000000     0.718600000000     0          
O17      O      0.861200000000     0.837500000000     0.851200000000     0          
C18      C      0.901800000000     0.824000000000     0.810200000000     0          
C19      C      0.953200000000     0.889300000000     0.877700000000     0          
H20      H      0.921300000000     0.904100000000     0.890600000000     0          
C21      C      0.953000000000     0.846900000000     0.827500000000     0          
O22      O      0.861300000000     0.796700000000     0.568500000000     0          
C23      C      0.835800000000     0.827200000000     0.522900000000     0          
O24      O      0.784500000000     0.837000000000     0.533500000000     0          
C25      C      0.962200000000     0.969200000000     0.016000000000     0          
H26      H      0.934500000000     0.948300000000     0.026300000000     0          
Zr27     Zr     0.722320000000     0.311850000000     0.363430000000     0          
O28      O      0.598600000000     0.203600000000     0.242200000000     0          
O29      O      0.707000000000     0.310000000000     0.218600000000     0          
O30      O      0.638800000000     0.162500000000     0.351200000000     0          
C31      C      0.598200000000     0.176000000000     0.310200000000     0          
C32      C      0.546800000000     0.110700000000     0.377700000000     0          
H33      H      0.578700000000     0.095900000000     0.390600000000     0          
C34      C      0.547000000000     0.153100000000     0.327500000000     0          
O35      O      0.638700000000     0.203300000000     0.068500000000     0          
C36      C      0.664200000000     0.172800000000     0.022900000000     0          
O37      O      0.715500000000     0.163000000000     0.033500000000     0          
C38      C      0.537800000000     0.030800000000     0.516000000000     0          
H39      H      0.565500000000     0.051700000000     0.526300000000     0          
Zr40     Zr     0.222320000000     0.811850000000     0.863430000000     0          
O41      O      0.098600000000     0.703600000000     0.742200000000     0          
O42      O      0.207000000000     0.810000000000     0.718600000000     0          
O43      O      0.138800000000     0.662500000000     0.851200000000     0          
C44      C      0.098200000000     0.676000000000     0.810200000000     0          
C45      C      0.046800000000     0.610700000000     0.877700000000     0          
H46      H      0.078700000000     0.595900000000     0.890600000000     0          
C47      C      0.047000000000     0.653100000000     0.827500000000     0          
O48      O      0.138700000000     0.703300000000     0.568500000000     0          
C49      C      0.164200000000     0.672800000000     0.522900000000     0          
O50      O      0.215500000000     0.663000000000     0.533500000000     0          
C51      C      0.038900000000     0.508500000000     0.934000000000     0          
H52      H      0.064800000000     0.512800000000     0.888700000000     0          
Zr53     Zr     0.722320000000     0.688150000000     0.636570000000     0          
O54      O      0.598600000000     0.796400000000     0.757800000000     0          
O55      O      0.707000000000     0.690000000000     0.781400000000     0          
O56      O      0.638800000000     0.837500000000     0.648800000000     0          
C57      C      0.598200000000     0.824000000000     0.689800000000     0          
C58      C      0.546800000000     0.889300000000     0.622300000000     0          
H59      H      0.578700000000     0.904100000000     0.609400000000     0          
C60      C      0.547000000000     0.846900000000     0.672500000000     0          
O61      O      0.638700000000     0.796700000000     0.931500000000     0          
C62      C      0.664200000000     0.827200000000     0.977100000000     0          
O63      O      0.715500000000     0.837000000000     0.966500000000     0          
C64      C      0.538900000000     0.991500000000     0.566000000000     0          
H65      H      0.564800000000     0.987200000000     0.611300000000     0          
Zr66     Zr     0.222320000000     0.188150000000     0.136570000000     0          
O67      O      0.098600000000     0.296400000000     0.257800000000     0          
O68      O      0.207000000000     0.190000000000     0.281400000000     0          
O69      O      0.138800000000     0.337500000000     0.148800000000     0          
C70      C      0.098200000000     0.324000000000     0.189800000000     0          
C71      C      0.046800000000     0.389300000000     0.122300000000     0          
H72      H      0.078700000000     0.404100000000     0.109400000000     0          
C73      C      0.047000000000     0.346900000000     0.172500000000     0          
O74      O      0.138700000000     0.296700000000     0.431500000000     0          
C75      C      0.164200000000     0.327200000000     0.477100000000     0          
O76      O      0.215500000000     0.337000000000     0.466500000000     0          
C77      C      0.037800000000     0.469200000000     0.984000000000     0          
H78      H      0.065500000000     0.448300000000     0.973700000000     0          
Zr79     Zr     0.277680000000     0.811850000000     0.636570000000     0          
O80      O      0.401400000000     0.703600000000     0.757800000000     0          
O81      O      0.293000000000     0.810000000000     0.781400000000     0          
O82      O      0.361200000000     0.662500000000     0.648800000000     0          
C83      C      0.401800000000     0.676000000000     0.689800000000     0          
C84      C      0.453200000000     0.610700000000     0.622300000000     0          
H85      H      0.421300000000     0.595900000000     0.609400000000     0          
C86      C      0.453000000000     0.653100000000     0.672500000000     0          
O87      O      0.361300000000     0.703300000000     0.931500000000     0          
C88      C      0.335800000000     0.672800000000     0.977100000000     0          
O89      O      0.284500000000     0.663000000000     0.966500000000     0          
C90      C      0.462200000000     0.530800000000     0.484000000000     0          
H91      H      0.434500000000     0.551700000000     0.473700000000     0          
Zr92     Zr     0.777680000000     0.311850000000     0.136570000000     0          
O93      O      0.901400000000     0.203600000000     0.257800000000     0          
O94      O      0.793000000000     0.310000000000     0.281400000000     0          
O95      O      0.861200000000     0.162500000000     0.148800000000     0          
C96      C      0.901800000000     0.176000000000     0.189800000000     0          
C97      C      0.953200000000     0.110700000000     0.122300000000     0          
H98      H      0.921300000000     0.095900000000     0.109400000000     0          
C99      C      0.953000000000     0.153100000000     0.172500000000     0          
O100     O      0.861300000000     0.203300000000     0.431500000000     0          
C101     C      0.835800000000     0.172800000000     0.477100000000     0          
O102     O      0.784500000000     0.163000000000     0.466500000000     0          
C103     C      0.961100000000     0.008500000000     0.066000000000     0          
H104     H      0.935200000000     0.012800000000     0.111300000000     0          
Zr105    Zr     0.722320000000     0.811850000000     0.636570000000     0          
O106     O      0.598600000000     0.703600000000     0.757800000000     0          
O107     O      0.707000000000     0.810000000000     0.781400000000     0          
O108     O      0.638800000000     0.662500000000     0.648800000000     0          
C109     C      0.598200000000     0.676000000000     0.689800000000     0          
C110     C      0.546800000000     0.610700000000     0.622300000000     0          
H111     H      0.578700000000     0.595900000000     0.609400000000     0          
C112     C      0.547000000000     0.653100000000     0.672500000000     0          
O113     O      0.638700000000     0.703300000000     0.931500000000     0          
C114     C      0.664200000000     0.672800000000     0.977100000000     0          
O115     O      0.715500000000     0.663000000000     0.966500000000     0          
C116     C      0.538900000000     0.508500000000     0.566000000000     0          
H117     H      0.564800000000     0.512800000000     0.611300000000     0          
Zr118    Zr     0.222320000000     0.311850000000     0.136570000000     0          
O119     O      0.098600000000     0.203600000000     0.257800000000     0          
O120     O      0.207000000000     0.310000000000     0.281400000000     0          
O121     O      0.138800000000     0.162500000000     0.148800000000     0          
C122     C      0.098200000000     0.176000000000     0.189800000000     0          
C123     C      0.046800000000     0.110700000000     0.122300000000     0          
H124     H      0.078700000000     0.095900000000     0.109400000000     0          
C125     C      0.047000000000     0.153100000000     0.172500000000     0          
O126     O      0.138700000000     0.203300000000     0.431500000000     0          
C127     C      0.164200000000     0.172800000000     0.477100000000     0          
O128     O      0.215500000000     0.163000000000     0.466500000000     0          
C129     C      0.037800000000     0.030800000000     0.984000000000     0          
H130     H      0.065500000000     0.051700000000     0.973700000000     0          
Zr131    Zr     0.277680000000     0.688150000000     0.636570000000     0          
O132     O      0.401400000000     0.796400000000     0.757800000000     0          
O133     O      0.293000000000     0.690000000000     0.781400000000     0          
O134     O      0.361200000000     0.837500000000     0.648800000000     0          
C135     C      0.401800000000     0.824000000000     0.689800000000     0          
C136     C      0.453200000000     0.889300000000     0.622300000000     0          
H137     H      0.421300000000     0.904100000000     0.609400000000     0          
C138     C      0.453000000000     0.846900000000     0.672500000000     0          
O139     O      0.361300000000     0.796700000000     0.931500000000     0          
C140     C      0.335800000000     0.827200000000     0.977100000000     0          
O141     O      0.284500000000     0.837000000000     0.966500000000     0          
C142     C      0.462200000000     0.969200000000     0.484000000000     0          
H143     H      0.434500000000     0.948300000000     0.473700000000     0          
Zr144    Zr     0.777680000000     0.188150000000     0.136570000000     0          
O145     O      0.901400000000     0.296400000000     0.257800000000     0          
O146     O      0.793000000000     0.190000000000     0.281400000000     0          
O147     O      0.861200000000     0.337500000000     0.148800000000     0          
C148     C      0.901800000000     0.324000000000     0.189800000000     0          
C149     C      0.953200000000     0.389300000000     0.122300000000     0          
H150     H      0.921300000000     0.404100000000     0.109400000000     0          
C151     C      0.953000000000     0.346900000000     0.172500000000     0          
O152     O      0.861300000000     0.296700000000     0.431500000000     0          
C153     C      0.835800000000     0.327200000000     0.477100000000     0          
O154     O      0.784500000000     0.337000000000     0.466500000000     0          
C155     C      0.961100000000     0.491500000000     0.066000000000     0          
H156     H      0.935200000000     0.487200000000     0.111300000000     0          
Zr157    Zr     0.277680000000     0.311850000000     0.363430000000     0          
O158     O      0.401400000000     0.203600000000     0.242200000000     0          
O159     O      0.293000000000     0.310000000000     0.218600000000     0          
O160     O      0.361200000000     0.162500000000     0.351200000000     0          
C161     C      0.401800000000     0.176000000000     0.310200000000     0          
C162     C      0.453200000000     0.110700000000     0.377700000000     0          
H163     H      0.421300000000     0.095900000000     0.390600000000     0          
C164     C      0.453000000000     0.153100000000     0.327500000000     0          
O165     O      0.361300000000     0.203300000000     0.068500000000     0          
C166     C      0.335800000000     0.172800000000     0.022900000000     0          
O167     O      0.284500000000     0.163000000000     0.033500000000     0          
C168     C      0.461100000000     0.008500000000     0.434000000000     0          
H169     H      0.435200000000     0.012800000000     0.388700000000     0          
Zr170    Zr     0.777680000000     0.811850000000     0.863430000000     0          
O171     O      0.901400000000     0.703600000000     0.742200000000     0          
O172     O      0.793000000000     0.810000000000     0.718600000000     0          
O173     O      0.861200000000     0.662500000000     0.851200000000     0          
C174     C      0.901800000000     0.676000000000     0.810200000000     0          
C175     C      0.953200000000     0.610700000000     0.877700000000     0          
H176     H      0.921300000000     0.595900000000     0.890600000000     0          
C177     C      0.953000000000     0.653100000000     0.827500000000     0          
O178     O      0.861300000000     0.703300000000     0.568500000000     0          
C179     C      0.835800000000     0.672800000000     0.522900000000     0          
O180     O      0.784500000000     0.663000000000     0.533500000000     0          
C181     C      0.962200000000     0.530800000000     0.016000000000     0          
H182     H      0.934500000000     0.551700000000     0.026300000000     0          
Zr183    Zr     0.722320000000     0.188150000000     0.363430000000     0          
O184     O      0.598600000000     0.296400000000     0.242200000000     0          
O185     O      0.707000000000     0.190000000000     0.218600000000     0          
O186     O      0.638800000000     0.337500000000     0.351200000000     0          
C187     C      0.598200000000     0.324000000000     0.310200000000     0          
C188     C      0.546800000000     0.389300000000     0.377700000000     0          
H189     H      0.578700000000     0.404100000000     0.390600000000     0          
C190     C      0.547000000000     0.346900000000     0.327500000000     0          
O191     O      0.638700000000     0.296700000000     0.068500000000     0          
C192     C      0.664200000000     0.327200000000     0.022900000000     0          
O193     O      0.715500000000     0.337000000000     0.033500000000     0          
C194     C      0.537800000000     0.469200000000     0.516000000000     0          
H195     H      0.565500000000     0.448300000000     0.526300000000     0          
Zr196    Zr     0.222320000000     0.688150000000     0.863430000000     0          
O197     O      0.098600000000     0.796400000000     0.742200000000     0          
O198     O      0.207000000000     0.690000000000     0.718600000000     0          
O199     O      0.138800000000     0.837500000000     0.851200000000     0          
C200     C      0.098200000000     0.824000000000     0.810200000000     0          
C201     C      0.046800000000     0.889300000000     0.877700000000     0          
H202     H      0.078700000000     0.904100000000     0.890600000000     0          
C203     C      0.047000000000     0.846900000000     0.827500000000     0          
O204     O      0.138700000000     0.796700000000     0.568500000000     0          
C205     C      0.164200000000     0.827200000000     0.522900000000     0          
O206     O      0.215500000000     0.837000000000     0.533500000000     0          
C207     C      0.038900000000     0.991500000000     0.934000000000     0          
H208     H      0.064800000000     0.987200000000     0.888700000000     0          
Zr209    Zr     0.339380000000     0.250000000000     0.183330000000     0          
O210     O      0.319600000000     0.250000000000     0.331900000000     0          
O211     O      0.233500000000     0.250000000000     0.398600000000     0          
Zr212    Zr     0.839380000000     0.750000000000     0.683330000000     0          
O213     O      0.819600000000     0.750000000000     0.831900000000     0          
O214     O      0.733500000000     0.750000000000     0.898600000000     0          
Zr215    Zr     0.660620000000     0.250000000000     0.183330000000     0          
O216     O      0.680400000000     0.250000000000     0.331900000000     0          
O217     O      0.766500000000     0.250000000000     0.398600000000     0          
Zr218    Zr     0.160620000000     0.750000000000     0.683330000000     0          
O219     O      0.180400000000     0.750000000000     0.831900000000     0          
O220     O      0.266500000000     0.750000000000     0.898600000000     0          
Zr221    Zr     0.660620000000     0.750000000000     0.816670000000     0          
O222     O      0.680400000000     0.750000000000     0.668100000000     0          
O223     O      0.766500000000     0.750000000000     0.601400000000     0          
Zr224    Zr     0.160620000000     0.250000000000     0.316670000000     0          
O225     O      0.180400000000     0.250000000000     0.168100000000     0          
O226     O      0.266500000000     0.250000000000     0.101400000000     0          
Zr227    Zr     0.339380000000     0.750000000000     0.816670000000     0          
O228     O      0.319600000000     0.750000000000     0.668100000000     0          
O229     O      0.233500000000     0.750000000000     0.601400000000     0          
Zr230    Zr     0.839380000000     0.250000000000     0.316670000000     0          
O231     O      0.819600000000     0.250000000000     0.168100000000     0          
O232     O      0.733500000000     0.250000000000     0.101400000000     0          
C233     C      0.500000000000     0.326700000000     0.300600000000     0          
H234     H      0.500000000000     0.299500000000     0.264300000000     0          
C235     C      0.500000000000     0.455200000000     0.450000000000     0          
C236     C      0.500000000000     0.409600000000     0.409000000000     0          
C237     C      0.000000000000     0.826700000000     0.800600000000     0          
H238     H      0.000000000000     0.799500000000     0.764300000000     0          
C239     C      0.000000000000     0.955200000000     0.950000000000     0          
C240     C      0.000000000000     0.909600000000     0.909000000000     0          
C241     C      0.500000000000     0.173300000000     0.300600000000     0          
H242     H      0.500000000000     0.200500000000     0.264300000000     0          
C243     C      0.500000000000     0.044800000000     0.450000000000     0          
C244     C      0.500000000000     0.090400000000     0.409000000000     0          
C245     C      0.000000000000     0.673300000000     0.800600000000     0          
H246     H      0.000000000000     0.700500000000     0.764300000000     0          
C247     C      0.000000000000     0.544800000000     0.950000000000     0          
C248     C      0.000000000000     0.590400000000     0.909000000000     0          
C249     C      0.500000000000     0.826700000000     0.699400000000     0          
H250     H      0.500000000000     0.799500000000     0.735700000000     0          
C251     C      0.500000000000     0.955200000000     0.550000000000     0          
C252     C      0.500000000000     0.909600000000     0.591000000000     0          
C253     C      0.000000000000     0.326700000000     0.199400000000     0          
H254     H      0.000000000000     0.299500000000     0.235700000000     0          
C255     C      0.000000000000     0.455200000000     0.050000000000     0          
C256     C      0.000000000000     0.409600000000     0.091000000000     0          
C257     C      0.500000000000     0.673300000000     0.699400000000     0          
H258     H      0.500000000000     0.700500000000     0.735700000000     0          
C259     C      0.500000000000     0.544800000000     0.550000000000     0          
C260     C      0.500000000000     0.590400000000     0.591000000000     0          
C261     C      0.000000000000     0.173300000000     0.199400000000     0          
H262     H      0.000000000000     0.200500000000     0.235700000000     0          
C263     C      0.000000000000     0.044800000000     0.050000000000     0          
C264     C      0.000000000000     0.090400000000     0.091000000000     0          


