data_FINPOK

_audit_creation_method RASPA-1.0
_audit_creation_date 2020-11-2
_audit_author_name 'Rocio Bueno-Perez'

_cell_length_a    25.385
_cell_length_b    30.661
_cell_length_c    8.2771
_cell_angle_alpha 90
_cell_angle_beta  90
_cell_angle_gamma 90
_cell_volume      6442.31

_symmetry_cell_setting          triclinic
_symmetry_space_group_name_Hall 'P 1'
_symmetry_space_group_name_H-M  'P 1'
_symmetry_Int_Tables_number     1

_symmetry_equiv_pos_as_xyz 'x,y,z'

loop_
_atom_site_label
_atom_site_type_symbol
_atom_site_fract_x
_atom_site_fract_y
_atom_site_fract_z
_atom_site_charge
O1       O      0.207900000000     0.193500000000     0.821200000000     0          
Zr2      Zr     0.216580000000     0.192830000000     0.566990000000     0          
O3       O      0.400100000000     0.292800000000     0.696500000000     0          
O4       O      0.364700000000     0.332700000000     0.895100000000     0          
C5       C      0.402600000000     0.321500000000     0.802100000000     0          
C6       C      0.453000000000     0.345100000000     0.825000000000     0          
C7       C      0.453200000000     0.387000000000     0.885000000000     0          
H8       H      0.420700000000     0.401000000000     0.908500000000     0          
C9       C      0.537700000000     0.483000000000     0.900000000000     0          
H10      H      0.561200000000     0.472600000000     0.819000000000     0          
O11      O      0.707900000000     0.693500000000     0.321200000000     0          
Zr12     Zr     0.716580000000     0.692830000000     0.066990000000     0          
O13      O      0.900100000000     0.792800000000     0.196500000000     0          
O14      O      0.864700000000     0.832700000000     0.395100000000     0          
C15      C      0.902600000000     0.821500000000     0.302100000000     0          
C16      C      0.953000000000     0.845100000000     0.325000000000     0          
C17      C      0.953200000000     0.887000000000     0.385000000000     0          
H18      H      0.920700000000     0.901000000000     0.408500000000     0          
C19      C      0.037700000000     0.983000000000     0.400000000000     0          
H20      H      0.061200000000     0.972600000000     0.319000000000     0          
O21      O      0.792100000000     0.306500000000     0.821200000000     0          
Zr22     Zr     0.783420000000     0.307170000000     0.566990000000     0          
O23      O      0.599900000000     0.207200000000     0.696500000000     0          
O24      O      0.635300000000     0.167300000000     0.895100000000     0          
C25      C      0.458700000000     0.027800000000     0.048000000000     0          
H26      H      0.428100000000     0.044500000000     0.071100000000     0          
C27      C      0.597400000000     0.178500000000     0.802100000000     0          
C28      C      0.547000000000     0.154900000000     0.825000000000     0          
C29      C      0.546800000000     0.113000000000     0.885000000000     0          
H30      H      0.579300000000     0.099000000000     0.908500000000     0          
O31      O      0.292100000000     0.806500000000     0.321200000000     0          
Zr32     Zr     0.283420000000     0.807170000000     0.066990000000     0          
O33      O      0.099900000000     0.707200000000     0.196500000000     0          
O34      O      0.135300000000     0.667300000000     0.395100000000     0          
C35      C      0.958700000000     0.527800000000     0.548000000000     0          
H36      H      0.928100000000     0.544500000000     0.571100000000     0          
C37      C      0.097400000000     0.678500000000     0.302100000000     0          
C38      C      0.047000000000     0.654900000000     0.325000000000     0          
C39      C      0.046800000000     0.613000000000     0.385000000000     0          
H40      H      0.079300000000     0.599000000000     0.408500000000     0          
O41      O      0.792100000000     0.693500000000     0.178800000000     0          
Zr42     Zr     0.783420000000     0.692830000000     0.433010000000     0          
O43      O      0.599900000000     0.792800000000     0.303500000000     0          
O44      O      0.635300000000     0.832700000000     0.104900000000     0          
C45      C      0.597400000000     0.821500000000     0.197900000000     0          
C46      C      0.547000000000     0.845100000000     0.175000000000     0          
C47      C      0.546800000000     0.887000000000     0.115000000000     0          
H48      H      0.579300000000     0.901000000000     0.091500000000     0          
C49      C      0.462300000000     0.983000000000     0.100000000000     0          
H50      H      0.438800000000     0.972600000000     0.181000000000     0          
O51      O      0.292100000000     0.193500000000     0.678800000000     0          
Zr52     Zr     0.283420000000     0.192830000000     0.933010000000     0          
O53      O      0.099900000000     0.292800000000     0.803500000000     0          
O54      O      0.135300000000     0.332700000000     0.604900000000     0          
C55      C      0.097400000000     0.321500000000     0.697900000000     0          
C56      C      0.047000000000     0.345100000000     0.675000000000     0          
C57      C      0.046800000000     0.387000000000     0.615000000000     0          
H58      H      0.079300000000     0.401000000000     0.591500000000     0          
C59      C      0.962300000000     0.483000000000     0.600000000000     0          
H60      H      0.938800000000     0.472600000000     0.681000000000     0          
O61      O      0.207900000000     0.806500000000     0.178800000000     0          
Zr62     Zr     0.216580000000     0.807170000000     0.433010000000     0          
O63      O      0.400100000000     0.707200000000     0.303500000000     0          
O64      O      0.364700000000     0.667300000000     0.104900000000     0          
C65      C      0.541300000000     0.527800000000     0.952000000000     0          
H66      H      0.571900000000     0.544500000000     0.928900000000     0          
C67      C      0.402600000000     0.678500000000     0.197900000000     0          
C68      C      0.453000000000     0.654900000000     0.175000000000     0          
C69      C      0.453200000000     0.613000000000     0.115000000000     0          
H70      H      0.420700000000     0.599000000000     0.091500000000     0          
O71      O      0.707900000000     0.306500000000     0.678800000000     0          
Zr72     Zr     0.716580000000     0.307170000000     0.933010000000     0          
O73      O      0.900100000000     0.207200000000     0.803500000000     0          
O74      O      0.864700000000     0.167300000000     0.604900000000     0          
C75      C      0.041300000000     0.027800000000     0.452000000000     0          
H76      H      0.071900000000     0.044500000000     0.428900000000     0          
C77      C      0.902600000000     0.178500000000     0.697900000000     0          
C78      C      0.953000000000     0.154900000000     0.675000000000     0          
C79      C      0.953200000000     0.113000000000     0.615000000000     0          
H80      H      0.920700000000     0.099000000000     0.591500000000     0          
O81      O      0.792100000000     0.806500000000     0.178800000000     0          
Zr82     Zr     0.783420000000     0.807170000000     0.433010000000     0          
O83      O      0.599900000000     0.707200000000     0.303500000000     0          
O84      O      0.635300000000     0.667300000000     0.104900000000     0          
C85      C      0.597400000000     0.678500000000     0.197900000000     0          
C86      C      0.547000000000     0.654900000000     0.175000000000     0          
C87      C      0.546800000000     0.613000000000     0.115000000000     0          
H88      H      0.579300000000     0.599000000000     0.091500000000     0          
C89      C      0.462300000000     0.517000000000     0.100000000000     0          
H90      H      0.438800000000     0.527400000000     0.181000000000     0          
O91      O      0.292100000000     0.306500000000     0.678800000000     0          
Zr92     Zr     0.283420000000     0.307170000000     0.933010000000     0          
O93      O      0.099900000000     0.207200000000     0.803500000000     0          
O94      O      0.135300000000     0.167300000000     0.604900000000     0          
C95      C      0.097400000000     0.178500000000     0.697900000000     0          
C96      C      0.047000000000     0.154900000000     0.675000000000     0          
C97      C      0.046800000000     0.113000000000     0.615000000000     0          
H98      H      0.079300000000     0.099000000000     0.591500000000     0          
C99      C      0.962300000000     0.017000000000     0.600000000000     0          
H100     H      0.938800000000     0.027400000000     0.681000000000     0          
O101     O      0.207900000000     0.693500000000     0.178800000000     0          
Zr102    Zr     0.216580000000     0.692830000000     0.433010000000     0          
O103     O      0.400100000000     0.792800000000     0.303500000000     0          
O104     O      0.364700000000     0.832700000000     0.104900000000     0          
C105     C      0.541300000000     0.972200000000     0.952000000000     0          
H106     H      0.571900000000     0.955500000000     0.928900000000     0          
C107     C      0.402600000000     0.821500000000     0.197900000000     0          
C108     C      0.453000000000     0.845100000000     0.175000000000     0          
C109     C      0.453200000000     0.887000000000     0.115000000000     0          
H110     H      0.420700000000     0.901000000000     0.091500000000     0          
O111     O      0.707900000000     0.193500000000     0.678800000000     0          
Zr112    Zr     0.716580000000     0.192830000000     0.933010000000     0          
O113     O      0.900100000000     0.292800000000     0.803500000000     0          
O114     O      0.864700000000     0.332700000000     0.604900000000     0          
C115     C      0.041300000000     0.472200000000     0.452000000000     0          
H116     H      0.071900000000     0.455500000000     0.428900000000     0          
C117     C      0.902600000000     0.321500000000     0.697900000000     0          
C118     C      0.953000000000     0.345100000000     0.675000000000     0          
C119     C      0.953200000000     0.387000000000     0.615000000000     0          
H120     H      0.920700000000     0.401000000000     0.591500000000     0          
O121     O      0.207900000000     0.306500000000     0.821200000000     0          
Zr122    Zr     0.216580000000     0.307170000000     0.566990000000     0          
O123     O      0.400100000000     0.207200000000     0.696500000000     0          
O124     O      0.364700000000     0.167300000000     0.895100000000     0          
C125     C      0.402600000000     0.178500000000     0.802100000000     0          
C126     C      0.453000000000     0.154900000000     0.825000000000     0          
C127     C      0.453200000000     0.113000000000     0.885000000000     0          
H128     H      0.420700000000     0.099000000000     0.908500000000     0          
C129     C      0.537700000000     0.017000000000     0.900000000000     0          
H130     H      0.561200000000     0.027400000000     0.819000000000     0          
O131     O      0.707900000000     0.806500000000     0.321200000000     0          
Zr132    Zr     0.716580000000     0.807170000000     0.066990000000     0          
O133     O      0.900100000000     0.707200000000     0.196500000000     0          
O134     O      0.864700000000     0.667300000000     0.395100000000     0          
C135     C      0.902600000000     0.678500000000     0.302100000000     0          
C136     C      0.953000000000     0.654900000000     0.325000000000     0          
C137     C      0.953200000000     0.613000000000     0.385000000000     0          
H138     H      0.920700000000     0.599000000000     0.408500000000     0          
C139     C      0.037700000000     0.517000000000     0.400000000000     0          
H140     H      0.061200000000     0.527400000000     0.319000000000     0          
O141     O      0.792100000000     0.193500000000     0.821200000000     0          
Zr142    Zr     0.783420000000     0.192830000000     0.566990000000     0          
O143     O      0.599900000000     0.292800000000     0.696500000000     0          
O144     O      0.635300000000     0.332700000000     0.895100000000     0          
C145     C      0.458700000000     0.472200000000     0.048000000000     0          
H146     H      0.428100000000     0.455500000000     0.071100000000     0          
C147     C      0.597400000000     0.321500000000     0.802100000000     0          
C148     C      0.547000000000     0.345100000000     0.825000000000     0          
C149     C      0.546800000000     0.387000000000     0.885000000000     0          
H150     H      0.579300000000     0.401000000000     0.908500000000     0          
O151     O      0.292100000000     0.693500000000     0.321200000000     0          
Zr152    Zr     0.283420000000     0.692830000000     0.066990000000     0          
O153     O      0.099900000000     0.792800000000     0.196500000000     0          
O154     O      0.135300000000     0.832700000000     0.395100000000     0          
C155     C      0.958700000000     0.972200000000     0.548000000000     0          
H156     H      0.928100000000     0.955500000000     0.571100000000     0          
C157     C      0.097400000000     0.821500000000     0.302100000000     0          
C158     C      0.047000000000     0.845100000000     0.325000000000     0          
C159     C      0.046800000000     0.887000000000     0.385000000000     0          
H160     H      0.079300000000     0.901000000000     0.408500000000     0          
Zr161    Zr     0.336190000000     0.250000000000     0.609680000000     0          
O162     O      0.261600000000     0.250000000000     0.496000000000     0          
O163     O      0.176400000000     0.250000000000     0.629300000000     0          
Zr164    Zr     0.836190000000     0.750000000000     0.109680000000     0          
O165     O      0.761600000000     0.750000000000     0.996000000000     0          
O166     O      0.676400000000     0.750000000000     0.129300000000     0          
Zr167    Zr     0.663810000000     0.250000000000     0.609680000000     0          
O168     O      0.738400000000     0.250000000000     0.496000000000     0          
O169     O      0.823600000000     0.250000000000     0.629300000000     0          
Zr170    Zr     0.163810000000     0.750000000000     0.109680000000     0          
O171     O      0.238400000000     0.750000000000     0.996000000000     0          
O172     O      0.323600000000     0.750000000000     0.129300000000     0          
Zr173    Zr     0.663810000000     0.750000000000     0.390320000000     0          
O174     O      0.738400000000     0.750000000000     0.504000000000     0          
O175     O      0.823600000000     0.750000000000     0.370700000000     0          
Zr176    Zr     0.163810000000     0.250000000000     0.890320000000     0          
O177     O      0.238400000000     0.250000000000     0.004000000000     0          
O178     O      0.323600000000     0.250000000000     0.870700000000     0          
Zr179    Zr     0.336190000000     0.750000000000     0.390320000000     0          
O180     O      0.261600000000     0.750000000000     0.504000000000     0          
O181     O      0.176400000000     0.750000000000     0.370700000000     0          
Zr182    Zr     0.836190000000     0.250000000000     0.890320000000     0          
O183     O      0.761600000000     0.250000000000     0.004000000000     0          
O184     O      0.676400000000     0.250000000000     0.870700000000     0          
C185     C      0.500000000000     0.408800000000     0.913000000000     0          
C186     C      0.500000000000     0.324300000000     0.795000000000     0          
H187     H      0.500000000000     0.295400000000     0.753500000000     0          
C188     C      0.500000000000     0.454100000000     0.965000000000     0          
C189     C      0.000000000000     0.908800000000     0.413000000000     0          
C190     C      0.000000000000     0.824300000000     0.295000000000     0          
H191     H      0.000000000000     0.795400000000     0.253500000000     0          
C192     C      0.000000000000     0.954100000000     0.465000000000     0          
C193     C      0.500000000000     0.091200000000     0.913000000000     0          
C194     C      0.500000000000     0.175700000000     0.795000000000     0          
H195     H      0.500000000000     0.204600000000     0.753500000000     0          
C196     C      0.500000000000     0.045900000000     0.965000000000     0          
C197     C      0.000000000000     0.591200000000     0.413000000000     0          
C198     C      0.000000000000     0.675700000000     0.295000000000     0          
H199     H      0.000000000000     0.704600000000     0.253500000000     0          
C200     C      0.000000000000     0.545900000000     0.465000000000     0          
C201     C      0.500000000000     0.908800000000     0.087000000000     0          
C202     C      0.500000000000     0.824300000000     0.205000000000     0          
H203     H      0.500000000000     0.795400000000     0.246500000000     0          
C204     C      0.500000000000     0.954100000000     0.035000000000     0          
C205     C      0.000000000000     0.408800000000     0.587000000000     0          
C206     C      0.000000000000     0.324300000000     0.705000000000     0          
H207     H      0.000000000000     0.295400000000     0.746500000000     0          
C208     C      0.000000000000     0.454100000000     0.535000000000     0          
C209     C      0.500000000000     0.591200000000     0.087000000000     0          
C210     C      0.500000000000     0.675700000000     0.205000000000     0          
H211     H      0.500000000000     0.704600000000     0.246500000000     0          
C212     C      0.500000000000     0.545900000000     0.035000000000     0          
C213     C      0.000000000000     0.091200000000     0.587000000000     0          
C214     C      0.000000000000     0.175700000000     0.705000000000     0          
H215     H      0.000000000000     0.204600000000     0.746500000000     0          
C216     C      0.000000000000     0.045900000000     0.535000000000     0          


