data_FIPCUF

_audit_creation_method RASPA-1.0
_audit_creation_date 2020-11-2
_audit_author_name 'Rocio Bueno-Perez'

_cell_length_a    15.409
_cell_length_b    15.409
_cell_length_c    15.409
_cell_angle_alpha 90
_cell_angle_beta  90
_cell_angle_gamma 90
_cell_volume      3658.67

_symmetry_cell_setting          triclinic
_symmetry_space_group_name_Hall 'P 1'
_symmetry_space_group_name_H-M  'P 1'
_symmetry_Int_Tables_number     1

_symmetry_equiv_pos_as_xyz 'x,y,z'

loop_
_atom_site_label
_atom_site_type_symbol
_atom_site_fract_x
_atom_site_fract_y
_atom_site_fract_z
_atom_site_charge
C1       C      0.849200000000     0.761200000000     0.451300000000     0          
H2       H      0.859600000000     0.707000000000     0.422500000000     0          
C3       C      0.913500000000     0.827500000000     0.449700000000     0          
H4       H      0.964300000000     0.819400000000     0.414600000000     0          
C5       C      0.150800000000     0.761200000000     0.548700000000     0          
H6       H      0.140400000000     0.707000000000     0.577500000000     0          
C7       C      0.086500000000     0.827500000000     0.550300000000     0          
H8       H      0.035700000000     0.819400000000     0.585400000000     0          
C9       C      0.451300000000     0.150800000000     0.238800000000     0          
H10      H      0.422500000000     0.140400000000     0.293000000000     0          
C11      C      0.449700000000     0.086500000000     0.172500000000     0          
H12      H      0.414600000000     0.035700000000     0.180600000000     0          
C13      C      0.548700000000     0.150800000000     0.761200000000     0          
H14      H      0.577500000000     0.140400000000     0.707000000000     0          
C15      C      0.550300000000     0.086500000000     0.827500000000     0          
H16      H      0.585400000000     0.035700000000     0.819400000000     0          
C17      C      0.761200000000     0.451300000000     0.849200000000     0          
H18      H      0.707000000000     0.422500000000     0.859600000000     0          
C19      C      0.827500000000     0.449700000000     0.913500000000     0          
H20      H      0.819400000000     0.414600000000     0.964300000000     0          
C21      C      0.761200000000     0.548700000000     0.150800000000     0          
H22      H      0.707000000000     0.577500000000     0.140400000000     0          
C23      C      0.827500000000     0.550300000000     0.086500000000     0          
H24      H      0.819400000000     0.585400000000     0.035700000000     0          
C25      C      0.761200000000     0.849200000000     0.548700000000     0          
H26      H      0.707000000000     0.859600000000     0.577500000000     0          
C27      C      0.827500000000     0.913500000000     0.550300000000     0          
H28      H      0.819400000000     0.964300000000     0.585400000000     0          
C29      C      0.238800000000     0.849200000000     0.451300000000     0          
H30      H      0.293000000000     0.859600000000     0.422500000000     0          
C31      C      0.172500000000     0.913500000000     0.449700000000     0          
H32      H      0.180600000000     0.964300000000     0.414600000000     0          
C33      C      0.849200000000     0.451300000000     0.238800000000     0          
H34      H      0.859600000000     0.422500000000     0.293000000000     0          
C35      C      0.913500000000     0.449700000000     0.172500000000     0          
H36      H      0.964300000000     0.414600000000     0.180600000000     0          
C37      C      0.849200000000     0.548700000000     0.761200000000     0          
H38      H      0.859600000000     0.577500000000     0.707000000000     0          
C39      C      0.913500000000     0.550300000000     0.827500000000     0          
H40      H      0.964300000000     0.585400000000     0.819400000000     0          
C41      C      0.451300000000     0.238800000000     0.849200000000     0          
H42      H      0.422500000000     0.293000000000     0.859600000000     0          
C43      C      0.449700000000     0.172500000000     0.913500000000     0          
H44      H      0.414600000000     0.180600000000     0.964300000000     0          
C45      C      0.548700000000     0.238800000000     0.150800000000     0          
H46      H      0.577500000000     0.293000000000     0.140400000000     0          
C47      C      0.550300000000     0.172500000000     0.086500000000     0          
H48      H      0.585400000000     0.180600000000     0.035700000000     0          
C49      C      0.150800000000     0.238800000000     0.548700000000     0          
H50      H      0.140400000000     0.293000000000     0.577500000000     0          
C51      C      0.086500000000     0.172500000000     0.550300000000     0          
H52      H      0.035700000000     0.180600000000     0.585400000000     0          
C53      C      0.849200000000     0.238800000000     0.451300000000     0          
H54      H      0.859600000000     0.293000000000     0.422500000000     0          
C55      C      0.913500000000     0.172500000000     0.449700000000     0          
H56      H      0.964300000000     0.180600000000     0.414600000000     0          
C57      C      0.548700000000     0.849200000000     0.761200000000     0          
H58      H      0.577500000000     0.859600000000     0.707000000000     0          
C59      C      0.550300000000     0.913500000000     0.827500000000     0          
H60      H      0.585400000000     0.964300000000     0.819400000000     0          
C61      C      0.451300000000     0.849200000000     0.238800000000     0          
H62      H      0.422500000000     0.859600000000     0.293000000000     0          
C63      C      0.449700000000     0.913500000000     0.172500000000     0          
H64      H      0.414600000000     0.964300000000     0.180600000000     0          
C65      C      0.238800000000     0.548700000000     0.150800000000     0          
H66      H      0.293000000000     0.577500000000     0.140400000000     0          
C67      C      0.172500000000     0.550300000000     0.086500000000     0          
H68      H      0.180600000000     0.585400000000     0.035700000000     0          
C69      C      0.238800000000     0.451300000000     0.849200000000     0          
H70      H      0.293000000000     0.422500000000     0.859600000000     0          
C71      C      0.172500000000     0.449700000000     0.913500000000     0          
H72      H      0.180600000000     0.414600000000     0.964300000000     0          
C73      C      0.238800000000     0.150800000000     0.451300000000     0          
H74      H      0.293000000000     0.140400000000     0.422500000000     0          
C75      C      0.172500000000     0.086500000000     0.449700000000     0          
H76      H      0.180600000000     0.035700000000     0.414600000000     0          
C77      C      0.761200000000     0.150800000000     0.548700000000     0          
H78      H      0.707000000000     0.140400000000     0.577500000000     0          
C79      C      0.827500000000     0.086500000000     0.550300000000     0          
H80      H      0.819400000000     0.035700000000     0.585400000000     0          
C81      C      0.150800000000     0.548700000000     0.761200000000     0          
H82      H      0.140400000000     0.577500000000     0.707000000000     0          
C83      C      0.086500000000     0.550300000000     0.827500000000     0          
H84      H      0.035700000000     0.585400000000     0.819400000000     0          
C85      C      0.150800000000     0.451300000000     0.238800000000     0          
H86      H      0.140400000000     0.422500000000     0.293000000000     0          
C87      C      0.086500000000     0.449700000000     0.172500000000     0          
H88      H      0.035700000000     0.414600000000     0.180600000000     0          
C89      C      0.548700000000     0.761200000000     0.150800000000     0          
H90      H      0.577500000000     0.707000000000     0.140400000000     0          
C91      C      0.550300000000     0.827500000000     0.086500000000     0          
H92      H      0.585400000000     0.819400000000     0.035700000000     0          
C93      C      0.451300000000     0.761200000000     0.849200000000     0          
H94      H      0.422500000000     0.707000000000     0.859600000000     0          
C95      C      0.449700000000     0.827500000000     0.913500000000     0          
H96      H      0.414600000000     0.819400000000     0.964300000000     0          
Zr97     Zr     0.339430000000     0.500000000000     0.500000000000     0          
Zr98     Zr     0.660570000000     0.500000000000     0.500000000000     0          
Zr99     Zr     0.500000000000     0.339430000000     0.500000000000     0          
Zr100    Zr     0.500000000000     0.660570000000     0.500000000000     0          
Zr101    Zr     0.500000000000     0.500000000000     0.339430000000     0          
Zr102    Zr     0.500000000000     0.500000000000     0.660570000000     0          
Co103    Co     0.000000000000     0.000000000000     0.500000000000     0          
Co104    Co     0.500000000000     0.000000000000     0.000000000000     0          
Co105    Co     0.000000000000     0.500000000000     0.000000000000     0          
O106     O      0.419300000000     0.419300000000     0.419300000000     0          
O107     O      0.580700000000     0.580700000000     0.419300000000     0          
O108     O      0.580700000000     0.419300000000     0.580700000000     0          
O109     O      0.419300000000     0.580700000000     0.580700000000     0          
O110     O      0.419300000000     0.419300000000     0.580700000000     0          
O111     O      0.580700000000     0.580700000000     0.580700000000     0          
O112     O      0.419300000000     0.580700000000     0.419300000000     0          
O113     O      0.580700000000     0.419300000000     0.419300000000     0          
O114     O      0.268500000000     0.373700000000     0.500000000000     0          
O115     O      0.731500000000     0.626300000000     0.500000000000     0          
O116     O      0.731500000000     0.373700000000     0.500000000000     0          
O117     O      0.268500000000     0.626300000000     0.500000000000     0          
O118     O      0.500000000000     0.268500000000     0.373700000000     0          
O119     O      0.500000000000     0.731500000000     0.626300000000     0          
O120     O      0.500000000000     0.731500000000     0.373700000000     0          
O121     O      0.500000000000     0.268500000000     0.626300000000     0          
O122     O      0.373700000000     0.500000000000     0.268500000000     0          
O123     O      0.626300000000     0.500000000000     0.731500000000     0          
O124     O      0.373700000000     0.500000000000     0.731500000000     0          
O125     O      0.626300000000     0.500000000000     0.268500000000     0          
O126     O      0.373700000000     0.268500000000     0.500000000000     0          
O127     O      0.626300000000     0.731500000000     0.500000000000     0          
O128     O      0.373700000000     0.731500000000     0.500000000000     0          
O129     O      0.626300000000     0.268500000000     0.500000000000     0          
O130     O      0.268500000000     0.500000000000     0.626300000000     0          
O131     O      0.731500000000     0.500000000000     0.373700000000     0          
O132     O      0.731500000000     0.500000000000     0.626300000000     0          
O133     O      0.268500000000     0.500000000000     0.373700000000     0          
O134     O      0.500000000000     0.373700000000     0.731500000000     0          
O135     O      0.500000000000     0.626300000000     0.268500000000     0          
O136     O      0.500000000000     0.373700000000     0.268500000000     0          
O137     O      0.500000000000     0.626300000000     0.731500000000     0          
N138     N      0.099400000000     0.099400000000     0.500000000000     0          
C139     C      0.295700000000     0.295700000000     0.500000000000     0          
C140     C      0.228500000000     0.228500000000     0.500000000000     0          
N141     N      0.900600000000     0.900600000000     0.500000000000     0          
C142     C      0.704300000000     0.704300000000     0.500000000000     0          
C143     C      0.771500000000     0.771500000000     0.500000000000     0          
N144     N      0.900600000000     0.099400000000     0.500000000000     0          
C145     C      0.704300000000     0.295700000000     0.500000000000     0          
C146     C      0.771500000000     0.228500000000     0.500000000000     0          
N147     N      0.099400000000     0.900600000000     0.500000000000     0          
C148     C      0.295700000000     0.704300000000     0.500000000000     0          
C149     C      0.228500000000     0.771500000000     0.500000000000     0          
N150     N      0.500000000000     0.099400000000     0.099400000000     0          
C151     C      0.500000000000     0.295700000000     0.295700000000     0          
C152     C      0.500000000000     0.228500000000     0.228500000000     0          
N153     N      0.500000000000     0.900600000000     0.900600000000     0          
C154     C      0.500000000000     0.704300000000     0.704300000000     0          
C155     C      0.500000000000     0.771500000000     0.771500000000     0          
N156     N      0.500000000000     0.900600000000     0.099400000000     0          
C157     C      0.500000000000     0.704300000000     0.295700000000     0          
C158     C      0.500000000000     0.771500000000     0.228500000000     0          
N159     N      0.500000000000     0.099400000000     0.900600000000     0          
C160     C      0.500000000000     0.295700000000     0.704300000000     0          
C161     C      0.500000000000     0.228500000000     0.771500000000     0          
N162     N      0.099400000000     0.500000000000     0.099400000000     0          
C163     C      0.295700000000     0.500000000000     0.295700000000     0          
C164     C      0.228500000000     0.500000000000     0.228500000000     0          
N165     N      0.900600000000     0.500000000000     0.900600000000     0          
C166     C      0.704300000000     0.500000000000     0.704300000000     0          
C167     C      0.771500000000     0.500000000000     0.771500000000     0          
N168     N      0.099400000000     0.500000000000     0.900600000000     0          
C169     C      0.295700000000     0.500000000000     0.704300000000     0          
C170     C      0.228500000000     0.500000000000     0.771500000000     0          
N171     N      0.900600000000     0.500000000000     0.099400000000     0          
C172     C      0.704300000000     0.500000000000     0.295700000000     0          
C173     C      0.771500000000     0.500000000000     0.228500000000     0          
O174     O      0.000000000000     0.000000000000     0.360300000000     0          
O175     O      0.000000000000     0.000000000000     0.639700000000     0          
O176     O      0.360300000000     0.000000000000     0.000000000000     0          
O177     O      0.639700000000     0.000000000000     0.000000000000     0          
O178     O      0.000000000000     0.360300000000     0.000000000000     0          
O179     O      0.000000000000     0.639700000000     0.000000000000     0          
H180     H      0.072040000000     0.000000000000     0.360300000000     0          
H181     H      0.072040000000     0.000000000000     0.639700000000     0          
H182     H      0.711740000000     0.000000000000     0.000000000000     0          
H183     H      0.072040000000     0.360300000000     0.000000000000     0          
H184     H      0.072040000000     0.639700000000     0.000000000000     0          
H185     H      0.364540000000     0.068690000000     0.021280000000     0          


