data_FIPDAM

_audit_creation_method RASPA-1.0
_audit_creation_date 2020-11-2
_audit_author_name 'Rocio Bueno-Perez'

_cell_length_a    15.389
_cell_length_b    15.389
_cell_length_c    15.389
_cell_angle_alpha 90
_cell_angle_beta  90
_cell_angle_gamma 90
_cell_volume      3644.44

_symmetry_cell_setting          triclinic
_symmetry_space_group_name_Hall 'P 1'
_symmetry_space_group_name_H-M  'P 1'
_symmetry_Int_Tables_number     1

_symmetry_equiv_pos_as_xyz 'x,y,z'

loop_
_atom_site_label
_atom_site_type_symbol
_atom_site_fract_x
_atom_site_fract_y
_atom_site_fract_z
_atom_site_charge
C1       C      0.763400000000     0.848500000000     0.452800000000     0          
H2       H      0.710600000000     0.859100000000     0.421300000000     0          
C3       C      0.829000000000     0.908700000000     0.451200000000     0          
H4       H      0.823000000000     0.958100000000     0.413600000000     0          
C5       C      0.547200000000     0.763400000000     0.151500000000     0          
H6       H      0.578700000000     0.710600000000     0.140900000000     0          
C7       C      0.548800000000     0.829000000000     0.091300000000     0          
H8       H      0.586400000000     0.823000000000     0.041900000000     0          
C9       C      0.452800000000     0.763400000000     0.848500000000     0          
H10      H      0.421300000000     0.710600000000     0.859100000000     0          
C11      C      0.451200000000     0.829000000000     0.908700000000     0          
H12      H      0.413600000000     0.823000000000     0.958100000000     0          
C13      C      0.151500000000     0.547200000000     0.763400000000     0          
H14      H      0.140900000000     0.578700000000     0.710600000000     0          
C15      C      0.091300000000     0.548800000000     0.829000000000     0          
H16      H      0.041900000000     0.586400000000     0.823000000000     0          
C17      C      0.151500000000     0.452800000000     0.236600000000     0          
H18      H      0.140900000000     0.421300000000     0.289400000000     0          
C19      C      0.091300000000     0.451200000000     0.171000000000     0          
H20      H      0.041900000000     0.413600000000     0.177000000000     0          
C21      C      0.848500000000     0.763400000000     0.547200000000     0          
H22      H      0.859100000000     0.710600000000     0.578700000000     0          
C23      C      0.908700000000     0.829000000000     0.548800000000     0          
H24      H      0.958100000000     0.823000000000     0.586400000000     0          
C25      C      0.236600000000     0.547200000000     0.151500000000     0          
H26      H      0.289400000000     0.578700000000     0.140900000000     0          
C27      C      0.171000000000     0.548800000000     0.091300000000     0          
H28      H      0.177000000000     0.586400000000     0.041900000000     0          
C29      C      0.236600000000     0.452800000000     0.848500000000     0          
H30      H      0.289400000000     0.421300000000     0.859100000000     0          
C31      C      0.171000000000     0.451200000000     0.908700000000     0          
H32      H      0.177000000000     0.413600000000     0.958100000000     0          
C33      C      0.547200000000     0.848500000000     0.763400000000     0          
H34      H      0.578700000000     0.859100000000     0.710600000000     0          
C35      C      0.548800000000     0.908700000000     0.829000000000     0          
H36      H      0.586400000000     0.958100000000     0.823000000000     0          
C37      C      0.452800000000     0.848500000000     0.236600000000     0          
H38      H      0.421300000000     0.859100000000     0.289400000000     0          
C39      C      0.451200000000     0.908700000000     0.171000000000     0          
H40      H      0.413600000000     0.958100000000     0.177000000000     0          
C41      C      0.763400000000     0.151500000000     0.452800000000     0          
H42      H      0.710600000000     0.140900000000     0.421300000000     0          
C43      C      0.829000000000     0.091300000000     0.451200000000     0          
H44      H      0.823000000000     0.041900000000     0.413600000000     0          
C45      C      0.236600000000     0.848500000000     0.452800000000     0          
H46      H      0.289400000000     0.859100000000     0.421300000000     0          
C47      C      0.171000000000     0.908700000000     0.451200000000     0          
H48      H      0.177000000000     0.958100000000     0.413600000000     0          
C49      C      0.236600000000     0.151500000000     0.547200000000     0          
H50      H      0.289400000000     0.140900000000     0.578700000000     0          
C51      C      0.171000000000     0.091300000000     0.548800000000     0          
H52      H      0.177000000000     0.041900000000     0.586400000000     0          
C53      C      0.452800000000     0.236600000000     0.848500000000     0          
H54      H      0.421300000000     0.289400000000     0.859100000000     0          
C55      C      0.451200000000     0.171000000000     0.908700000000     0          
H56      H      0.413600000000     0.177000000000     0.958100000000     0          
C57      C      0.547200000000     0.236600000000     0.151500000000     0          
H58      H      0.578700000000     0.289400000000     0.140900000000     0          
C59      C      0.548800000000     0.171000000000     0.091300000000     0          
H60      H      0.586400000000     0.177000000000     0.041900000000     0          
C61      C      0.848500000000     0.452800000000     0.236600000000     0          
H62      H      0.859100000000     0.421300000000     0.289400000000     0          
C63      C      0.908700000000     0.451200000000     0.171000000000     0          
H64      H      0.958100000000     0.413600000000     0.177000000000     0          
C65      C      0.848500000000     0.547200000000     0.763400000000     0          
H66      H      0.859100000000     0.578700000000     0.710600000000     0          
C67      C      0.908700000000     0.548800000000     0.829000000000     0          
H68      H      0.958100000000     0.586400000000     0.823000000000     0          
C69      C      0.151500000000     0.763400000000     0.547200000000     0          
H70      H      0.140900000000     0.710600000000     0.578700000000     0          
C71      C      0.091300000000     0.829000000000     0.548800000000     0          
H72      H      0.041900000000     0.823000000000     0.586400000000     0          
C73      C      0.848500000000     0.236600000000     0.547200000000     0          
H74      H      0.859100000000     0.289400000000     0.578700000000     0          
C75      C      0.908700000000     0.171000000000     0.548800000000     0          
H76      H      0.958100000000     0.177000000000     0.586400000000     0          
C77      C      0.151500000000     0.236600000000     0.452800000000     0          
H78      H      0.140900000000     0.289400000000     0.421300000000     0          
C79      C      0.091300000000     0.171000000000     0.451200000000     0          
H80      H      0.041900000000     0.177000000000     0.413600000000     0          
C81      C      0.763400000000     0.452800000000     0.848500000000     0          
H82      H      0.710600000000     0.421300000000     0.859100000000     0          
C83      C      0.829000000000     0.451200000000     0.908700000000     0          
H84      H      0.823000000000     0.413600000000     0.958100000000     0          
C85      C      0.763400000000     0.547200000000     0.151500000000     0          
H86      H      0.710600000000     0.578700000000     0.140900000000     0          
C87      C      0.829000000000     0.548800000000     0.091300000000     0          
H88      H      0.823000000000     0.586400000000     0.041900000000     0          
C89      C      0.452800000000     0.151500000000     0.236600000000     0          
H90      H      0.421300000000     0.140900000000     0.289400000000     0          
C91      C      0.451200000000     0.091300000000     0.171000000000     0          
H92      H      0.413600000000     0.041900000000     0.177000000000     0          
C93      C      0.547200000000     0.151500000000     0.763400000000     0          
H94      H      0.578700000000     0.140900000000     0.710600000000     0          
C95      C      0.548800000000     0.091300000000     0.829000000000     0          
H96      H      0.586400000000     0.041900000000     0.823000000000     0          
Zr97     Zr     0.339440000000     0.500000000000     0.500000000000     0          
Zr98     Zr     0.660560000000     0.500000000000     0.500000000000     0          
Zr99     Zr     0.500000000000     0.339440000000     0.500000000000     0          
Zr100    Zr     0.500000000000     0.660560000000     0.500000000000     0          
Zr101    Zr     0.500000000000     0.500000000000     0.339440000000     0          
Zr102    Zr     0.500000000000     0.500000000000     0.660560000000     0          
Co103    Co     0.000000000000     0.000000000000     0.500000000000     0          
Co104    Co     0.500000000000     0.000000000000     0.000000000000     0          
Co105    Co     0.000000000000     0.500000000000     0.000000000000     0          
O106     O      0.418100000000     0.418100000000     0.581900000000     0          
O107     O      0.581900000000     0.581900000000     0.581900000000     0          
O108     O      0.581900000000     0.418100000000     0.418100000000     0          
O109     O      0.418100000000     0.581900000000     0.418100000000     0          
O110     O      0.418100000000     0.418100000000     0.418100000000     0          
O111     O      0.581900000000     0.581900000000     0.418100000000     0          
O112     O      0.418100000000     0.581900000000     0.581900000000     0          
O113     O      0.581900000000     0.418100000000     0.581900000000     0          
C114     C      0.295500000000     0.704500000000     0.500000000000     0          
N115     N      0.098700000000     0.901300000000     0.500000000000     0          
C116     C      0.227000000000     0.773000000000     0.500000000000     0          
C117     C      0.704500000000     0.295500000000     0.500000000000     0          
N118     N      0.901300000000     0.098700000000     0.500000000000     0          
C119     C      0.773000000000     0.227000000000     0.500000000000     0          
C120     C      0.704500000000     0.704500000000     0.500000000000     0          
N121     N      0.901300000000     0.901300000000     0.500000000000     0          
C122     C      0.773000000000     0.773000000000     0.500000000000     0          
C123     C      0.295500000000     0.295500000000     0.500000000000     0          
N124     N      0.098700000000     0.098700000000     0.500000000000     0          
C125     C      0.227000000000     0.227000000000     0.500000000000     0          
C126     C      0.500000000000     0.295500000000     0.704500000000     0          
N127     N      0.500000000000     0.098700000000     0.901300000000     0          
C128     C      0.500000000000     0.227000000000     0.773000000000     0          
C129     C      0.500000000000     0.704500000000     0.295500000000     0          
N130     N      0.500000000000     0.901300000000     0.098700000000     0          
C131     C      0.500000000000     0.773000000000     0.227000000000     0          
C132     C      0.500000000000     0.704500000000     0.704500000000     0          
N133     N      0.500000000000     0.901300000000     0.901300000000     0          
C134     C      0.500000000000     0.773000000000     0.773000000000     0          
C135     C      0.500000000000     0.295500000000     0.295500000000     0          
N136     N      0.500000000000     0.098700000000     0.098700000000     0          
C137     C      0.500000000000     0.227000000000     0.227000000000     0          
C138     C      0.704500000000     0.500000000000     0.295500000000     0          
N139     N      0.901300000000     0.500000000000     0.098700000000     0          
C140     C      0.773000000000     0.500000000000     0.227000000000     0          
C141     C      0.295500000000     0.500000000000     0.704500000000     0          
N142     N      0.098700000000     0.500000000000     0.901300000000     0          
C143     C      0.227000000000     0.500000000000     0.773000000000     0          
C144     C      0.704500000000     0.500000000000     0.704500000000     0          
N145     N      0.901300000000     0.500000000000     0.901300000000     0          
C146     C      0.773000000000     0.500000000000     0.773000000000     0          
C147     C      0.295500000000     0.500000000000     0.295500000000     0          
N148     N      0.098700000000     0.500000000000     0.098700000000     0          
C149     C      0.227000000000     0.500000000000     0.227000000000     0          
O150     O      0.268400000000     0.626400000000     0.500000000000     0          
O151     O      0.731600000000     0.373600000000     0.500000000000     0          
O152     O      0.731600000000     0.626400000000     0.500000000000     0          
O153     O      0.268400000000     0.373600000000     0.500000000000     0          
O154     O      0.500000000000     0.268400000000     0.626400000000     0          
O155     O      0.500000000000     0.731600000000     0.373600000000     0          
O156     O      0.500000000000     0.731600000000     0.626400000000     0          
O157     O      0.500000000000     0.268400000000     0.373600000000     0          
O158     O      0.626400000000     0.500000000000     0.268400000000     0          
O159     O      0.373600000000     0.500000000000     0.731600000000     0          
O160     O      0.626400000000     0.500000000000     0.731600000000     0          
O161     O      0.373600000000     0.500000000000     0.268400000000     0          
O162     O      0.626400000000     0.268400000000     0.500000000000     0          
O163     O      0.373600000000     0.731600000000     0.500000000000     0          
O164     O      0.626400000000     0.731600000000     0.500000000000     0          
O165     O      0.373600000000     0.268400000000     0.500000000000     0          
O166     O      0.268400000000     0.500000000000     0.373600000000     0          
O167     O      0.731600000000     0.500000000000     0.626400000000     0          
O168     O      0.731600000000     0.500000000000     0.373600000000     0          
O169     O      0.268400000000     0.500000000000     0.626400000000     0          
O170     O      0.500000000000     0.626400000000     0.731600000000     0          
O171     O      0.500000000000     0.373600000000     0.268400000000     0          
O172     O      0.500000000000     0.626400000000     0.268400000000     0          
O173     O      0.500000000000     0.373600000000     0.731600000000     0          
Br174    Br     0.000000000000     0.000000000000     0.670800000000     0          
Br175    Br     0.000000000000     0.000000000000     0.329200000000     0          
Br176    Br     0.670800000000     0.000000000000     0.000000000000     0          
Br177    Br     0.329200000000     0.000000000000     0.000000000000     0          
Br178    Br     0.000000000000     0.670800000000     0.000000000000     0          
Br179    Br     0.000000000000     0.329200000000     0.000000000000     0          


