data_FIPDOA

_audit_creation_method RASPA-1.0
_audit_creation_date 2020-11-2
_audit_author_name 'Rocio Bueno-Perez'

_cell_length_a    15.421
_cell_length_b    15.421
_cell_length_c    15.421
_cell_angle_alpha 90
_cell_angle_beta  90
_cell_angle_gamma 90
_cell_volume      3667.23

_symmetry_cell_setting          triclinic
_symmetry_space_group_name_Hall 'P 1'
_symmetry_space_group_name_H-M  'P 1'
_symmetry_Int_Tables_number     1

_symmetry_equiv_pos_as_xyz 'x,y,z'

loop_
_atom_site_label
_atom_site_type_symbol
_atom_site_fract_x
_atom_site_fract_y
_atom_site_fract_z
_atom_site_charge
C1       C      0.457400000000     0.910700000000     0.829700000000     0          
H2       H      0.423900000000     0.962600000000     0.821800000000     0          
C3       C      0.454100000000     0.849200000000     0.759800000000     0          
H4       H      0.421500000000     0.859100000000     0.707600000000     0          
C5       C      0.542600000000     0.089300000000     0.829700000000     0          
H6       H      0.576100000000     0.037400000000     0.821800000000     0          
C7       C      0.545900000000     0.150800000000     0.759800000000     0          
H8       H      0.578500000000     0.140900000000     0.707600000000     0          
C9       C      0.829700000000     0.457400000000     0.910700000000     0          
H10      H      0.821800000000     0.423900000000     0.962600000000     0          
C11      C      0.759800000000     0.454100000000     0.849200000000     0          
H12      H      0.707600000000     0.421500000000     0.859100000000     0          
C13      C      0.829700000000     0.542600000000     0.089300000000     0          
H14      H      0.821800000000     0.576100000000     0.037400000000     0          
C15      C      0.759800000000     0.545900000000     0.150800000000     0          
H16      H      0.707600000000     0.578500000000     0.140900000000     0          
C17      C      0.910700000000     0.457400000000     0.170300000000     0          
H18      H      0.962600000000     0.423900000000     0.178200000000     0          
C19      C      0.849200000000     0.454100000000     0.240200000000     0          
H20      H      0.859100000000     0.421500000000     0.292400000000     0          
C21      C      0.910700000000     0.542600000000     0.829700000000     0          
H22      H      0.962600000000     0.576100000000     0.821800000000     0          
C23      C      0.849200000000     0.545900000000     0.759800000000     0          
H24      H      0.859100000000     0.578500000000     0.707600000000     0          
C25      C      0.457400000000     0.170300000000     0.910700000000     0          
H26      H      0.423900000000     0.178200000000     0.962600000000     0          
C27      C      0.454100000000     0.240200000000     0.849200000000     0          
H28      H      0.421500000000     0.292400000000     0.859100000000     0          
C29      C      0.542600000000     0.829700000000     0.910700000000     0          
H30      H      0.576100000000     0.821800000000     0.962600000000     0          
C31      C      0.545900000000     0.759800000000     0.849200000000     0          
H32      H      0.578500000000     0.707600000000     0.859100000000     0          
C33      C      0.910700000000     0.829700000000     0.542600000000     0          
H34      H      0.962600000000     0.821800000000     0.576100000000     0          
C35      C      0.849200000000     0.759800000000     0.545900000000     0          
H36      H      0.859100000000     0.707600000000     0.578500000000     0          
C37      C      0.089300000000     0.170300000000     0.542600000000     0          
H38      H      0.037400000000     0.178200000000     0.576100000000     0          
C39      C      0.150800000000     0.240200000000     0.545900000000     0          
H40      H      0.140900000000     0.292400000000     0.578500000000     0          
C41      C      0.089300000000     0.829700000000     0.457400000000     0          
H42      H      0.037400000000     0.821800000000     0.423900000000     0          
C43      C      0.150800000000     0.759800000000     0.454100000000     0          
H44      H      0.140900000000     0.707600000000     0.421500000000     0          
C45      C      0.910700000000     0.170300000000     0.457400000000     0          
H46      H      0.962600000000     0.178200000000     0.423900000000     0          
C47      C      0.849200000000     0.240200000000     0.454100000000     0          
H48      H      0.859100000000     0.292400000000     0.421500000000     0          
C49      C      0.542600000000     0.089300000000     0.170300000000     0          
H50      H      0.576100000000     0.037400000000     0.178200000000     0          
C51      C      0.545900000000     0.150800000000     0.240200000000     0          
H52      H      0.578500000000     0.140900000000     0.292400000000     0          
C53      C      0.457400000000     0.910700000000     0.170300000000     0          
H54      H      0.423900000000     0.962600000000     0.178200000000     0          
C55      C      0.454100000000     0.849200000000     0.240200000000     0          
H56      H      0.421500000000     0.859100000000     0.292400000000     0          
C57      C      0.170300000000     0.542600000000     0.089300000000     0          
H58      H      0.178200000000     0.576100000000     0.037400000000     0          
C59      C      0.240200000000     0.545900000000     0.150800000000     0          
H60      H      0.292400000000     0.578500000000     0.140900000000     0          
C61      C      0.170300000000     0.457400000000     0.910700000000     0          
H62      H      0.178200000000     0.423900000000     0.962600000000     0          
C63      C      0.240200000000     0.454100000000     0.849200000000     0          
H64      H      0.292400000000     0.421500000000     0.859100000000     0          
C65      C      0.829700000000     0.910700000000     0.457400000000     0          
H66      H      0.821800000000     0.962600000000     0.423900000000     0          
C67      C      0.759800000000     0.849200000000     0.454100000000     0          
H68      H      0.707600000000     0.859100000000     0.421500000000     0          
C69      C      0.170300000000     0.089300000000     0.457400000000     0          
H70      H      0.178200000000     0.037400000000     0.423900000000     0          
C71      C      0.240200000000     0.150800000000     0.454100000000     0          
H72      H      0.292400000000     0.140900000000     0.421500000000     0          
C73      C      0.829700000000     0.089300000000     0.542600000000     0          
H74      H      0.821800000000     0.037400000000     0.576100000000     0          
C75      C      0.759800000000     0.150800000000     0.545900000000     0          
H76      H      0.707600000000     0.140900000000     0.578500000000     0          
C77      C      0.170300000000     0.910700000000     0.542600000000     0          
H78      H      0.178200000000     0.962600000000     0.576100000000     0          
C79      C      0.240200000000     0.849200000000     0.545900000000     0          
H80      H      0.292400000000     0.859100000000     0.578500000000     0          
C81      C      0.089300000000     0.542600000000     0.829700000000     0          
H82      H      0.037400000000     0.576100000000     0.821800000000     0          
C83      C      0.150800000000     0.545900000000     0.759800000000     0          
H84      H      0.140900000000     0.578500000000     0.707600000000     0          
C85      C      0.089300000000     0.457400000000     0.170300000000     0          
H86      H      0.037400000000     0.423900000000     0.178200000000     0          
C87      C      0.150800000000     0.454100000000     0.240200000000     0          
H88      H      0.140900000000     0.421500000000     0.292400000000     0          
C89      C      0.542600000000     0.829700000000     0.089300000000     0          
H90      H      0.576100000000     0.821800000000     0.037400000000     0          
C91      C      0.545900000000     0.759800000000     0.150800000000     0          
H92      H      0.578500000000     0.707600000000     0.140900000000     0          
C93      C      0.457400000000     0.170300000000     0.089300000000     0          
H94      H      0.423900000000     0.178200000000     0.037400000000     0          
C95      C      0.454100000000     0.240200000000     0.150800000000     0          
H96      H      0.421500000000     0.292400000000     0.140900000000     0          
Zr97     Zr     0.500000000000     0.339820000000     0.500000000000     0          
Zr98     Zr     0.500000000000     0.660180000000     0.500000000000     0          
Zr99     Zr     0.500000000000     0.500000000000     0.339820000000     0          
Zr100    Zr     0.500000000000     0.500000000000     0.660180000000     0          
Zr101    Zr     0.339820000000     0.500000000000     0.500000000000     0          
Zr102    Zr     0.660180000000     0.500000000000     0.500000000000     0          
Co103    Co     0.000000000000     0.000000000000     0.500000000000     0          
Co104    Co     0.500000000000     0.000000000000     0.000000000000     0          
Co105    Co     0.000000000000     0.500000000000     0.000000000000     0          
O106     O      0.582300000000     0.417700000000     0.582300000000     0          
O107     O      0.417700000000     0.582300000000     0.582300000000     0          
O108     O      0.417700000000     0.417700000000     0.417700000000     0          
O109     O      0.582300000000     0.582300000000     0.417700000000     0          
O110     O      0.417700000000     0.582300000000     0.417700000000     0          
O111     O      0.582300000000     0.417700000000     0.417700000000     0          
O112     O      0.417700000000     0.417700000000     0.582300000000     0          
O113     O      0.582300000000     0.582300000000     0.582300000000     0          
O114     O      0.373000000000     0.267100000000     0.500000000000     0          
O115     O      0.627000000000     0.732900000000     0.500000000000     0          
O116     O      0.627000000000     0.267100000000     0.500000000000     0          
O117     O      0.373000000000     0.732900000000     0.500000000000     0          
O118     O      0.500000000000     0.373000000000     0.267100000000     0          
O119     O      0.500000000000     0.627000000000     0.732900000000     0          
O120     O      0.500000000000     0.627000000000     0.267100000000     0          
O121     O      0.500000000000     0.373000000000     0.732900000000     0          
O122     O      0.267100000000     0.500000000000     0.373000000000     0          
O123     O      0.732900000000     0.500000000000     0.627000000000     0          
O124     O      0.267100000000     0.500000000000     0.627000000000     0          
O125     O      0.732900000000     0.500000000000     0.373000000000     0          
O126     O      0.267100000000     0.373000000000     0.500000000000     0          
O127     O      0.732900000000     0.627000000000     0.500000000000     0          
O128     O      0.267100000000     0.627000000000     0.500000000000     0          
O129     O      0.732900000000     0.373000000000     0.500000000000     0          
O130     O      0.373000000000     0.500000000000     0.732900000000     0          
O131     O      0.627000000000     0.500000000000     0.267100000000     0          
O132     O      0.627000000000     0.500000000000     0.732900000000     0          
O133     O      0.373000000000     0.500000000000     0.267100000000     0          
O134     O      0.500000000000     0.267100000000     0.627000000000     0          
O135     O      0.500000000000     0.732900000000     0.373000000000     0          
O136     O      0.500000000000     0.267100000000     0.373000000000     0          
O137     O      0.500000000000     0.732900000000     0.627000000000     0          
N138     N      0.099300000000     0.099300000000     0.500000000000     0          
C139     C      0.299300000000     0.299300000000     0.500000000000     0          
C140     C      0.228700000000     0.228700000000     0.500000000000     0          
N141     N      0.900700000000     0.900700000000     0.500000000000     0          
C142     C      0.700700000000     0.700700000000     0.500000000000     0          
C143     C      0.771300000000     0.771300000000     0.500000000000     0          
N144     N      0.900700000000     0.099300000000     0.500000000000     0          
C145     C      0.700700000000     0.299300000000     0.500000000000     0          
C146     C      0.771300000000     0.228700000000     0.500000000000     0          
N147     N      0.099300000000     0.900700000000     0.500000000000     0          
C148     C      0.299300000000     0.700700000000     0.500000000000     0          
C149     C      0.228700000000     0.771300000000     0.500000000000     0          
N150     N      0.500000000000     0.099300000000     0.099300000000     0          
C151     C      0.500000000000     0.299300000000     0.299300000000     0          
C152     C      0.500000000000     0.228700000000     0.228700000000     0          
N153     N      0.500000000000     0.900700000000     0.900700000000     0          
C154     C      0.500000000000     0.700700000000     0.700700000000     0          
C155     C      0.500000000000     0.771300000000     0.771300000000     0          
N156     N      0.500000000000     0.900700000000     0.099300000000     0          
C157     C      0.500000000000     0.700700000000     0.299300000000     0          
C158     C      0.500000000000     0.771300000000     0.228700000000     0          
N159     N      0.500000000000     0.099300000000     0.900700000000     0          
C160     C      0.500000000000     0.299300000000     0.700700000000     0          
C161     C      0.500000000000     0.228700000000     0.771300000000     0          
N162     N      0.099300000000     0.500000000000     0.099300000000     0          
C163     C      0.299300000000     0.500000000000     0.299300000000     0          
C164     C      0.228700000000     0.500000000000     0.228700000000     0          
N165     N      0.900700000000     0.500000000000     0.900700000000     0          
C166     C      0.700700000000     0.500000000000     0.700700000000     0          
C167     C      0.771300000000     0.500000000000     0.771300000000     0          
N168     N      0.099300000000     0.500000000000     0.900700000000     0          
C169     C      0.299300000000     0.500000000000     0.700700000000     0          
C170     C      0.228700000000     0.500000000000     0.771300000000     0          
N171     N      0.900700000000     0.500000000000     0.099300000000     0          
C172     C      0.700700000000     0.500000000000     0.299300000000     0          
C173     C      0.771300000000     0.500000000000     0.228700000000     0          
N174     N      0.000000000000     0.000000000000     0.629400000000     0          
C175     C      0.000000000000     0.000000000000     0.704900000000     0          
Se176    Se     0.000000000000     0.000000000000     0.820100000000     0          
N177     N      0.000000000000     0.000000000000     0.370600000000     0          
C178     C      0.000000000000     0.000000000000     0.295100000000     0          
Se179    Se     0.000000000000     0.000000000000     0.179900000000     0          
N180     N      0.629400000000     0.000000000000     0.000000000000     0          
C181     C      0.704900000000     0.000000000000     0.000000000000     0          
Se182    Se     0.820100000000     0.000000000000     0.000000000000     0          
N183     N      0.370600000000     0.000000000000     0.000000000000     0          
C184     C      0.295100000000     0.000000000000     0.000000000000     0          
Se185    Se     0.179900000000     0.000000000000     0.000000000000     0          
N186     N      0.000000000000     0.629400000000     0.000000000000     0          
C187     C      0.000000000000     0.704900000000     0.000000000000     0          
Se188    Se     0.000000000000     0.820100000000     0.000000000000     0          
N189     N      0.000000000000     0.370600000000     0.000000000000     0          
C190     C      0.000000000000     0.295100000000     0.000000000000     0          
Se191    Se     0.000000000000     0.179900000000     0.000000000000     0          


