data_FIPDIU

_audit_creation_method RASPA-1.0
_audit_creation_date 2020-11-2
_audit_author_name 'Rocio Bueno-Perez'

_cell_length_a    15.445
_cell_length_b    15.445
_cell_length_c    15.445
_cell_angle_alpha 90
_cell_angle_beta  90
_cell_angle_gamma 90
_cell_volume      3684.37

_symmetry_cell_setting          triclinic
_symmetry_space_group_name_Hall 'P 1'
_symmetry_space_group_name_H-M  'P 1'
_symmetry_Int_Tables_number     1

_symmetry_equiv_pos_as_xyz 'x,y,z'

loop_
_atom_site_label
_atom_site_type_symbol
_atom_site_fract_x
_atom_site_fract_y
_atom_site_fract_z
_atom_site_charge
C1       C      0.760200000000     0.151200000000     0.451700000000     0          
H2       H      0.707400000000     0.140700000000     0.420600000000     0          
C3       C      0.828200000000     0.090600000000     0.451000000000     0          
H4       H      0.822700000000     0.041100000000     0.413900000000     0          
C5       C      0.239800000000     0.848800000000     0.451700000000     0          
H6       H      0.292600000000     0.859300000000     0.420600000000     0          
C7       C      0.171800000000     0.909400000000     0.451000000000     0          
H8       H      0.177300000000     0.958900000000     0.413900000000     0          
C9       C      0.239800000000     0.151200000000     0.548300000000     0          
H10      H      0.292600000000     0.140700000000     0.579400000000     0          
C11      C      0.171800000000     0.090600000000     0.549000000000     0          
H12      H      0.177300000000     0.041100000000     0.586100000000     0          
C13      C      0.548300000000     0.760200000000     0.848800000000     0          
H14      H      0.579400000000     0.707400000000     0.859300000000     0          
C15      C      0.549000000000     0.828200000000     0.909400000000     0          
H16      H      0.586100000000     0.822700000000     0.958900000000     0          
C17      C      0.848800000000     0.451700000000     0.239800000000     0          
H18      H      0.859300000000     0.420600000000     0.292600000000     0          
C19      C      0.909400000000     0.451000000000     0.171800000000     0          
H20      H      0.958900000000     0.413900000000     0.177300000000     0          
C21      C      0.151200000000     0.548300000000     0.239800000000     0          
H22      H      0.140700000000     0.579400000000     0.292600000000     0          
C23      C      0.090600000000     0.549000000000     0.171800000000     0          
H24      H      0.041100000000     0.586100000000     0.177300000000     0          
C25      C      0.848800000000     0.548300000000     0.760200000000     0          
H26      H      0.859300000000     0.579400000000     0.707400000000     0          
C27      C      0.909400000000     0.549000000000     0.828200000000     0          
H28      H      0.958900000000     0.586100000000     0.822700000000     0          
C29      C      0.151200000000     0.760200000000     0.548300000000     0          
H30      H      0.140700000000     0.707400000000     0.579400000000     0          
C31      C      0.090600000000     0.828200000000     0.549000000000     0          
H32      H      0.041100000000     0.822700000000     0.586100000000     0          
C33      C      0.848800000000     0.239800000000     0.548300000000     0          
H34      H      0.859300000000     0.292600000000     0.579400000000     0          
C35      C      0.909400000000     0.171800000000     0.549000000000     0          
H36      H      0.958900000000     0.177300000000     0.586100000000     0          
C37      C      0.151200000000     0.239800000000     0.451700000000     0          
H38      H      0.140700000000     0.292600000000     0.420600000000     0          
C39      C      0.090600000000     0.171800000000     0.451000000000     0          
H40      H      0.041100000000     0.177300000000     0.413900000000     0          
C41      C      0.760200000000     0.451700000000     0.848800000000     0          
H42      H      0.707400000000     0.420600000000     0.859300000000     0          
C43      C      0.828200000000     0.451000000000     0.909400000000     0          
H44      H      0.822700000000     0.413900000000     0.958900000000     0          
C45      C      0.239800000000     0.451700000000     0.151200000000     0          
H46      H      0.292600000000     0.420600000000     0.140700000000     0          
C47      C      0.171800000000     0.451000000000     0.090600000000     0          
H48      H      0.177300000000     0.413900000000     0.041100000000     0          
C49      C      0.760200000000     0.548300000000     0.151200000000     0          
H50      H      0.707400000000     0.579400000000     0.140700000000     0          
C51      C      0.828200000000     0.549000000000     0.090600000000     0          
H52      H      0.822700000000     0.586100000000     0.041100000000     0          
C53      C      0.451700000000     0.848800000000     0.760200000000     0          
H54      H      0.420600000000     0.859300000000     0.707400000000     0          
C55      C      0.451000000000     0.909400000000     0.828200000000     0          
H56      H      0.413900000000     0.958900000000     0.822700000000     0          
C57      C      0.760200000000     0.848800000000     0.451700000000     0          
H58      H      0.707400000000     0.859300000000     0.420600000000     0          
C59      C      0.828200000000     0.909400000000     0.451000000000     0          
H60      H      0.822700000000     0.958900000000     0.413900000000     0          
C61      C      0.548300000000     0.239800000000     0.848800000000     0          
H62      H      0.579400000000     0.292600000000     0.859300000000     0          
C63      C      0.549000000000     0.171800000000     0.909400000000     0          
H64      H      0.586100000000     0.177300000000     0.958900000000     0          
C65      C      0.548300000000     0.760200000000     0.151200000000     0          
H66      H      0.579400000000     0.707400000000     0.140700000000     0          
C67      C      0.549000000000     0.828200000000     0.090600000000     0          
H68      H      0.586100000000     0.822700000000     0.041100000000     0          
C69      C      0.451700000000     0.239800000000     0.151200000000     0          
H70      H      0.420600000000     0.292600000000     0.140700000000     0          
C71      C      0.451000000000     0.171800000000     0.090600000000     0          
H72      H      0.413900000000     0.177300000000     0.041100000000     0          
C73      C      0.151200000000     0.548300000000     0.760200000000     0          
H74      H      0.140700000000     0.579400000000     0.707400000000     0          
C75      C      0.090600000000     0.549000000000     0.828200000000     0          
H76      H      0.041100000000     0.586100000000     0.822700000000     0          
C77      C      0.848800000000     0.760200000000     0.548300000000     0          
H78      H      0.859300000000     0.707400000000     0.579400000000     0          
C79      C      0.909400000000     0.828200000000     0.549000000000     0          
H80      H      0.958900000000     0.822700000000     0.586100000000     0          
C81      C      0.239800000000     0.451700000000     0.848800000000     0          
H82      H      0.292600000000     0.420600000000     0.859300000000     0          
C83      C      0.171800000000     0.451000000000     0.909400000000     0          
H84      H      0.177300000000     0.413900000000     0.958900000000     0          
C85      C      0.548300000000     0.151200000000     0.239800000000     0          
H86      H      0.579400000000     0.140700000000     0.292600000000     0          
C87      C      0.549000000000     0.090600000000     0.171800000000     0          
H88      H      0.586100000000     0.041100000000     0.177300000000     0          
C89      C      0.451700000000     0.848800000000     0.239800000000     0          
H90      H      0.420600000000     0.859300000000     0.292600000000     0          
C91      C      0.451000000000     0.909400000000     0.171800000000     0          
H92      H      0.413900000000     0.958900000000     0.177300000000     0          
C93      C      0.451700000000     0.151200000000     0.760200000000     0          
H94      H      0.420600000000     0.140700000000     0.707400000000     0          
C95      C      0.451000000000     0.090600000000     0.828200000000     0          
H96      H      0.413900000000     0.041100000000     0.822700000000     0          
Zr97     Zr     0.500000000000     0.339900000000     0.500000000000     0          
Zr98     Zr     0.500000000000     0.660100000000     0.500000000000     0          
Zr99     Zr     0.500000000000     0.500000000000     0.339900000000     0          
Zr100    Zr     0.500000000000     0.500000000000     0.660100000000     0          
Zr101    Zr     0.339900000000     0.500000000000     0.500000000000     0          
Zr102    Zr     0.660100000000     0.500000000000     0.500000000000     0          
O103     O      0.419200000000     0.419200000000     0.419200000000     0          
O104     O      0.580800000000     0.580800000000     0.419200000000     0          
O105     O      0.580800000000     0.419200000000     0.580800000000     0          
O106     O      0.419200000000     0.580800000000     0.580800000000     0          
O107     O      0.419200000000     0.419200000000     0.580800000000     0          
O108     O      0.580800000000     0.580800000000     0.580800000000     0          
O109     O      0.419200000000     0.580800000000     0.419200000000     0          
O110     O      0.580800000000     0.419200000000     0.419200000000     0          
Co111    Co     0.000000000000     0.000000000000     0.500000000000     0          
Co112    Co     0.500000000000     0.000000000000     0.000000000000     0          
Co113    Co     0.000000000000     0.500000000000     0.000000000000     0          
O114     O      0.626000000000     0.268200000000     0.500000000000     0          
O115     O      0.374000000000     0.731800000000     0.500000000000     0          
O116     O      0.374000000000     0.268200000000     0.500000000000     0          
O117     O      0.626000000000     0.731800000000     0.500000000000     0          
O118     O      0.500000000000     0.626000000000     0.268200000000     0          
O119     O      0.500000000000     0.374000000000     0.731800000000     0          
O120     O      0.500000000000     0.374000000000     0.268200000000     0          
O121     O      0.500000000000     0.626000000000     0.731800000000     0          
O122     O      0.268200000000     0.500000000000     0.626000000000     0          
O123     O      0.731800000000     0.500000000000     0.374000000000     0          
O124     O      0.268200000000     0.500000000000     0.374000000000     0          
O125     O      0.731800000000     0.500000000000     0.626000000000     0          
O126     O      0.268200000000     0.626000000000     0.500000000000     0          
O127     O      0.731800000000     0.374000000000     0.500000000000     0          
O128     O      0.268200000000     0.374000000000     0.500000000000     0          
O129     O      0.731800000000     0.626000000000     0.500000000000     0          
O130     O      0.626000000000     0.500000000000     0.731800000000     0          
O131     O      0.374000000000     0.500000000000     0.268200000000     0          
O132     O      0.374000000000     0.500000000000     0.731800000000     0          
O133     O      0.626000000000     0.500000000000     0.268200000000     0          
O134     O      0.500000000000     0.268200000000     0.374000000000     0          
O135     O      0.500000000000     0.731800000000     0.626000000000     0          
O136     O      0.500000000000     0.268200000000     0.626000000000     0          
O137     O      0.500000000000     0.731800000000     0.374000000000     0          
N138     N      0.900500000000     0.099500000000     0.500000000000     0          
C139     C      0.703900000000     0.296100000000     0.500000000000     0          
C140     C      0.772200000000     0.227800000000     0.500000000000     0          
N141     N      0.099500000000     0.900500000000     0.500000000000     0          
C142     C      0.296100000000     0.703900000000     0.500000000000     0          
C143     C      0.227800000000     0.772200000000     0.500000000000     0          
N144     N      0.099500000000     0.099500000000     0.500000000000     0          
C145     C      0.296100000000     0.296100000000     0.500000000000     0          
C146     C      0.227800000000     0.227800000000     0.500000000000     0          
N147     N      0.900500000000     0.900500000000     0.500000000000     0          
C148     C      0.703900000000     0.703900000000     0.500000000000     0          
C149     C      0.772200000000     0.772200000000     0.500000000000     0          
N150     N      0.500000000000     0.900500000000     0.099500000000     0          
C151     C      0.500000000000     0.703900000000     0.296100000000     0          
C152     C      0.500000000000     0.772200000000     0.227800000000     0          
N153     N      0.500000000000     0.099500000000     0.900500000000     0          
C154     C      0.500000000000     0.296100000000     0.703900000000     0          
C155     C      0.500000000000     0.227800000000     0.772200000000     0          
N156     N      0.500000000000     0.099500000000     0.099500000000     0          
C157     C      0.500000000000     0.296100000000     0.296100000000     0          
C158     C      0.500000000000     0.227800000000     0.227800000000     0          
N159     N      0.500000000000     0.900500000000     0.900500000000     0          
C160     C      0.500000000000     0.703900000000     0.703900000000     0          
C161     C      0.500000000000     0.772200000000     0.772200000000     0          
N162     N      0.099500000000     0.500000000000     0.900500000000     0          
C163     C      0.296100000000     0.500000000000     0.703900000000     0          
C164     C      0.227800000000     0.500000000000     0.772200000000     0          
N165     N      0.900500000000     0.500000000000     0.099500000000     0          
C166     C      0.703900000000     0.500000000000     0.296100000000     0          
C167     C      0.772200000000     0.500000000000     0.227800000000     0          
N168     N      0.099500000000     0.500000000000     0.099500000000     0          
C169     C      0.296100000000     0.500000000000     0.296100000000     0          
C170     C      0.227800000000     0.500000000000     0.227800000000     0          
N171     N      0.900500000000     0.500000000000     0.900500000000     0          
C172     C      0.703900000000     0.500000000000     0.703900000000     0          
C173     C      0.772200000000     0.500000000000     0.772200000000     0          
N174     N      0.000000000000     0.000000000000     0.370200000000     0          
S175     S      0.000000000000     0.000000000000     0.189100000000     0          
C176     C      0.000000000000     0.000000000000     0.295900000000     0          
N177     N      0.000000000000     0.000000000000     0.629800000000     0          
S178     S      0.000000000000     0.000000000000     0.810900000000     0          
C179     C      0.000000000000     0.000000000000     0.704100000000     0          
N180     N      0.370200000000     0.000000000000     0.000000000000     0          
S181     S      0.189100000000     0.000000000000     0.000000000000     0          
C182     C      0.295900000000     0.000000000000     0.000000000000     0          
N183     N      0.629800000000     0.000000000000     0.000000000000     0          
S184     S      0.810900000000     0.000000000000     0.000000000000     0          
C185     C      0.704100000000     0.000000000000     0.000000000000     0          
N186     N      0.000000000000     0.370200000000     0.000000000000     0          
S187     S      0.000000000000     0.189100000000     0.000000000000     0          
C188     C      0.000000000000     0.295900000000     0.000000000000     0          
N189     N      0.000000000000     0.629800000000     0.000000000000     0          
S190     S      0.000000000000     0.810900000000     0.000000000000     0          
C191     C      0.000000000000     0.704100000000     0.000000000000     0          


