data_FIPFIW

_audit_creation_method RASPA-1.0
_audit_creation_date 2020-11-2
_audit_author_name 'Rocio Bueno-Perez'

_cell_length_a    15.474
_cell_length_b    15.474
_cell_length_c    15.474
_cell_angle_alpha 90
_cell_angle_beta  90
_cell_angle_gamma 90
_cell_volume      3705.17

_symmetry_cell_setting          triclinic
_symmetry_space_group_name_Hall 'P 1'
_symmetry_space_group_name_H-M  'P 1'
_symmetry_Int_Tables_number     1

_symmetry_equiv_pos_as_xyz 'x,y,z'

loop_
_atom_site_label
_atom_site_type_symbol
_atom_site_fract_x
_atom_site_fract_y
_atom_site_fract_z
_atom_site_charge
C1       C      0.154500000000     0.238300000000     0.453800000000     0          
H2       H      0.143300000000     0.292500000000     0.425900000000     0          
C3       C      0.092200000000     0.172300000000     0.448800000000     0          
H4       H      0.044600000000     0.175900000000     0.409300000000     0          
C5       C      0.845500000000     0.238300000000     0.546200000000     0          
H6       H      0.856700000000     0.292500000000     0.574100000000     0          
C7       C      0.907800000000     0.172300000000     0.551200000000     0          
C8       C      0.154500000000     0.761700000000     0.546200000000     0          
H9       H      0.143300000000     0.707500000000     0.574100000000     0          
C10      C      0.092200000000     0.827700000000     0.551200000000     0          
H11      H      0.044600000000     0.824100000000     0.590700000000     0          
C12      C      0.546200000000     0.845500000000     0.238300000000     0          
H13      H      0.574100000000     0.856700000000     0.292500000000     0          
C14      C      0.551200000000     0.907800000000     0.172300000000     0          
H15      H      0.590700000000     0.955400000000     0.175900000000     0          
C16      C      0.546200000000     0.154500000000     0.761700000000     0          
H17      H      0.574100000000     0.143300000000     0.707500000000     0          
C18      C      0.551200000000     0.092200000000     0.827700000000     0          
H19      H      0.590700000000     0.044600000000     0.824100000000     0          
C20      C      0.761700000000     0.453800000000     0.845500000000     0          
H21      H      0.707500000000     0.425900000000     0.856700000000     0          
C22      C      0.827700000000     0.448800000000     0.907800000000     0          
H23      H      0.824100000000     0.409300000000     0.955400000000     0          
C24      C      0.238300000000     0.546200000000     0.845500000000     0          
H25      H      0.292500000000     0.574100000000     0.856700000000     0          
C26      C      0.172300000000     0.551200000000     0.907800000000     0          
H27      H      0.175900000000     0.590700000000     0.955400000000     0          
C28      C      0.238300000000     0.154500000000     0.546200000000     0          
H29      H      0.292500000000     0.143300000000     0.574100000000     0          
C30      C      0.172300000000     0.092200000000     0.551200000000     0          
H31      H      0.175900000000     0.044600000000     0.590700000000     0          
C32      C      0.238300000000     0.845500000000     0.453800000000     0          
H33      H      0.292500000000     0.856700000000     0.425900000000     0          
C34      C      0.172300000000     0.907800000000     0.448800000000     0          
H35      H      0.175900000000     0.955400000000     0.409300000000     0          
C36      C      0.761700000000     0.154500000000     0.453800000000     0          
H37      H      0.707500000000     0.143300000000     0.425900000000     0          
C38      C      0.827700000000     0.092200000000     0.448800000000     0          
H39      H      0.824100000000     0.044600000000     0.409300000000     0          
C40      C      0.154500000000     0.453800000000     0.761700000000     0          
H41      H      0.143300000000     0.425900000000     0.707500000000     0          
C42      C      0.092200000000     0.448800000000     0.827700000000     0          
H43      H      0.044600000000     0.409300000000     0.824100000000     0          
C44      C      0.845500000000     0.546200000000     0.761700000000     0          
H45      H      0.856700000000     0.574100000000     0.707500000000     0          
C46      C      0.907800000000     0.551200000000     0.827700000000     0          
H47      H      0.955400000000     0.590700000000     0.824100000000     0          
C48      C      0.453800000000     0.238300000000     0.845500000000     0          
H49      H      0.425900000000     0.292500000000     0.856700000000     0          
C50      C      0.448800000000     0.172300000000     0.907800000000     0          
H51      H      0.409300000000     0.175900000000     0.955400000000     0          
C52      C      0.453800000000     0.761700000000     0.154500000000     0          
H53      H      0.425900000000     0.707500000000     0.143300000000     0          
C54      C      0.448800000000     0.827700000000     0.092200000000     0          
H55      H      0.409300000000     0.824100000000     0.044600000000     0          
C56      C      0.845500000000     0.761700000000     0.546200000000     0          
H57      H      0.856700000000     0.707500000000     0.574100000000     0          
C58      C      0.907800000000     0.827700000000     0.551200000000     0          
H59      H      0.955400000000     0.824100000000     0.590700000000     0          
C60      C      0.546200000000     0.845500000000     0.761700000000     0          
H61      H      0.574100000000     0.856700000000     0.707500000000     0          
C62      C      0.551200000000     0.907800000000     0.827700000000     0          
H63      H      0.590700000000     0.955400000000     0.824100000000     0          
C64      C      0.546200000000     0.154500000000     0.238300000000     0          
H65      H      0.574100000000     0.143300000000     0.292500000000     0          
C66      C      0.551200000000     0.092200000000     0.172300000000     0          
H67      H      0.590700000000     0.044600000000     0.175900000000     0          
C68      C      0.238300000000     0.546200000000     0.154500000000     0          
H69      H      0.292500000000     0.574100000000     0.143300000000     0          
C70      C      0.172300000000     0.551200000000     0.092200000000     0          
H71      H      0.175900000000     0.590700000000     0.044600000000     0          
C72      C      0.761700000000     0.845500000000     0.453800000000     0          
H73      H      0.707500000000     0.856700000000     0.425900000000     0          
C74      C      0.827700000000     0.907800000000     0.448800000000     0          
H75      H      0.824100000000     0.955400000000     0.409300000000     0          
C76      C      0.154500000000     0.453800000000     0.238300000000     0          
H77      H      0.143300000000     0.425900000000     0.292500000000     0          
C78      C      0.092200000000     0.448800000000     0.172300000000     0          
H79      H      0.044600000000     0.409300000000     0.175900000000     0          
C80      C      0.453800000000     0.761700000000     0.845500000000     0          
H81      H      0.425900000000     0.707500000000     0.856700000000     0          
C82      C      0.448800000000     0.827700000000     0.907800000000     0          
H83      H      0.409300000000     0.824100000000     0.955400000000     0          
C84      C      0.453800000000     0.238300000000     0.154500000000     0          
H85      H      0.425900000000     0.292500000000     0.143300000000     0          
C86      C      0.448800000000     0.172300000000     0.092200000000     0          
H87      H      0.409300000000     0.175900000000     0.044600000000     0          
Zr88     Zr     0.339980000000     0.500000000000     0.500000000000     0          
Zr89     Zr     0.660020000000     0.500000000000     0.500000000000     0          
Zr90     Zr     0.500000000000     0.339980000000     0.500000000000     0          
Zr91     Zr     0.500000000000     0.660020000000     0.500000000000     0          
Zr92     Zr     0.500000000000     0.500000000000     0.339980000000     0          
Zr93     Zr     0.500000000000     0.500000000000     0.660020000000     0          
O94      O      0.419700000000     0.419700000000     0.419700000000     0          
O95      O      0.580300000000     0.580300000000     0.419700000000     0          
O96      O      0.580300000000     0.419700000000     0.580300000000     0          
O97      O      0.419700000000     0.580300000000     0.580300000000     0          
O98      O      0.419700000000     0.419700000000     0.580300000000     0          
O99      O      0.580300000000     0.580300000000     0.580300000000     0          
O100     O      0.419700000000     0.580300000000     0.419700000000     0          
O101     O      0.580300000000     0.419700000000     0.419700000000     0          
Fe102    Fe     0.500000000000     0.000000000000     0.000000000000     0          
Fe103    Fe     0.000000000000     0.500000000000     0.000000000000     0          
O104     O      0.267100000000     0.376000000000     0.500000000000     0          
O105     O      0.732900000000     0.624000000000     0.500000000000     0          
O106     O      0.732900000000     0.376000000000     0.500000000000     0          
O107     O      0.267100000000     0.624000000000     0.500000000000     0          
O108     O      0.500000000000     0.267100000000     0.376000000000     0          
O109     O      0.500000000000     0.732900000000     0.624000000000     0          
O110     O      0.500000000000     0.732900000000     0.376000000000     0          
O111     O      0.500000000000     0.267100000000     0.624000000000     0          
O112     O      0.376000000000     0.500000000000     0.267100000000     0          
O113     O      0.624000000000     0.500000000000     0.732900000000     0          
O114     O      0.376000000000     0.500000000000     0.732900000000     0          
O115     O      0.624000000000     0.500000000000     0.267100000000     0          
O116     O      0.376000000000     0.267100000000     0.500000000000     0          
O117     O      0.624000000000     0.732900000000     0.500000000000     0          
O118     O      0.376000000000     0.732900000000     0.500000000000     0          
O119     O      0.624000000000     0.267100000000     0.500000000000     0          
O120     O      0.267100000000     0.500000000000     0.624000000000     0          
O121     O      0.732900000000     0.500000000000     0.376000000000     0          
O122     O      0.732900000000     0.500000000000     0.624000000000     0          
O123     O      0.267100000000     0.500000000000     0.376000000000     0          
O124     O      0.500000000000     0.376000000000     0.732900000000     0          
O125     O      0.500000000000     0.624000000000     0.267100000000     0          
O126     O      0.500000000000     0.376000000000     0.267100000000     0          
O127     O      0.500000000000     0.624000000000     0.732900000000     0          
N128     N      0.102400000000     0.102400000000     0.500000000000     0          
C129     C      0.296400000000     0.296400000000     0.500000000000     0          
C130     C      0.228900000000     0.228900000000     0.500000000000     0          
N131     N      0.897600000000     0.897600000000     0.500000000000     0          
C132     C      0.703600000000     0.703600000000     0.500000000000     0          
C133     C      0.771100000000     0.771100000000     0.500000000000     0          
N134     N      0.897600000000     0.102400000000     0.500000000000     0          
C135     C      0.703600000000     0.296400000000     0.500000000000     0          
C136     C      0.771100000000     0.228900000000     0.500000000000     0          
N137     N      0.102400000000     0.897600000000     0.500000000000     0          
C138     C      0.296400000000     0.703600000000     0.500000000000     0          
C139     C      0.228900000000     0.771100000000     0.500000000000     0          
N140     N      0.500000000000     0.102400000000     0.102400000000     0          
C141     C      0.500000000000     0.296400000000     0.296400000000     0          
C142     C      0.500000000000     0.228900000000     0.228900000000     0          
N143     N      0.500000000000     0.897600000000     0.897600000000     0          
C144     C      0.500000000000     0.703600000000     0.703600000000     0          
C145     C      0.500000000000     0.771100000000     0.771100000000     0          
N146     N      0.500000000000     0.897600000000     0.102400000000     0          
C147     C      0.500000000000     0.703600000000     0.296400000000     0          
C148     C      0.500000000000     0.771100000000     0.228900000000     0          
N149     N      0.500000000000     0.102400000000     0.897600000000     0          
C150     C      0.500000000000     0.296400000000     0.703600000000     0          
C151     C      0.500000000000     0.228900000000     0.771100000000     0          
N152     N      0.102400000000     0.500000000000     0.102400000000     0          
C153     C      0.296400000000     0.500000000000     0.296400000000     0          
C154     C      0.228900000000     0.500000000000     0.228900000000     0          
N155     N      0.897600000000     0.500000000000     0.897600000000     0          
C156     C      0.703600000000     0.500000000000     0.703600000000     0          
C157     C      0.771100000000     0.500000000000     0.771100000000     0          
N158     N      0.102400000000     0.500000000000     0.897600000000     0          
C159     C      0.296400000000     0.500000000000     0.703600000000     0          
C160     C      0.228900000000     0.500000000000     0.771100000000     0          
C161     C      0.703600000000     0.500000000000     0.296400000000     0          
N162     N      0.000000000000     0.000000000000     0.371100000000     0          
S163     S      0.000000000000     0.000000000000     0.189800000000     0          
C164     C      0.000000000000     0.000000000000     0.297000000000     0          
S165     S      0.000000000000     0.000000000000     0.810200000000     0          
C166     C      0.000000000000     0.000000000000     0.703000000000     0          
N167     N      0.371100000000     0.000000000000     0.000000000000     0          
S168     S      0.189800000000     0.000000000000     0.000000000000     0          
C169     C      0.297000000000     0.000000000000     0.000000000000     0          
S170     S      0.810200000000     0.000000000000     0.000000000000     0          
C171     C      0.703000000000     0.000000000000     0.000000000000     0          
N172     N      0.000000000000     0.371100000000     0.000000000000     0          
S173     S      0.000000000000     0.189800000000     0.000000000000     0          
C174     C      0.000000000000     0.297000000000     0.000000000000     0          
N175     N      0.000000000000     0.628900000000     0.000000000000     0          
S176     S      0.000000000000     0.810200000000     0.000000000000     0          
C177     C      0.000000000000     0.703000000000     0.000000000000     0          


