data_GAZCUI

_audit_creation_method RASPA-1.0
_audit_creation_date 2020-11-2
_audit_author_name 'Rocio Bueno-Perez'

_cell_length_a    24.45
_cell_length_b    24.45
_cell_length_c    14.63
_cell_angle_alpha 90
_cell_angle_beta  90
_cell_angle_gamma 90
_cell_volume      8745.85

_symmetry_cell_setting          tetragonal
_symmetry_space_group_name_Hall 'P 1'
_symmetry_space_group_name_H-M  'P 1'
_symmetry_Int_Tables_number     1

_symmetry_equiv_pos_as_xyz 'x,y,z'

loop_
_atom_site_label
_atom_site_type_symbol
_atom_site_fract_x
_atom_site_fract_y
_atom_site_fract_z
_atom_site_charge
C1       C      0.673600000000     0.649400000000     0.067500000000     0          
C2       C      0.650600000000     0.622500000000     0.991500000000     0          
C3       C      0.612900000000     0.572200000000     0.020300000000     0          
H1       H      0.607300000000     0.564600000000     0.081800000000     0          
C4       C      0.587100000000     0.538000000000     0.950600000000     0          
H2       H      0.564500000000     0.508800000000     0.966200000000     0          
C5       C      0.597500000000     0.550900000000     0.863300000000     0          
C6       C      0.631200000000     0.593600000000     0.837800000000     0          
C7       C      0.656200000000     0.626700000000     0.906700000000     0          
H3       H      0.679300000000     0.654400000000     0.886200000000     0          
C8       C      0.672900000000     0.647500000000     0.505400000000     0          
C9       C      0.644800000000     0.612100000000     0.578600000000     0          
C10      C      0.613600000000     0.571700000000     0.560200000000     0          
H4       H      0.606000000000     0.566300000000     0.498600000000     0          
C11      C      0.589400000000     0.534500000000     0.620800000000     0          
H5       H      0.570900000000     0.503000000000     0.603400000000     0          
C12      C      0.596800000000     0.551100000000     0.708900000000     0          
C13      C      0.631500000000     0.595800000000     0.728600000000     0          
C14      C      0.655700000000     0.625300000000     0.667800000000     0          
H6       H      0.679200000000     0.653800000000     0.683400000000     0          
N1       N      0.577700000000     0.525000000000     0.788600000000     0          
O1       O      0.759400000000     0.678400000000     0.207200000000     0          
O2       O      0.822100000000     0.758500000000     0.369800000000     0          
O3       O      0.702000000000     0.689700000000     0.039800000000     0          
O4       O      0.664500000000     0.636100000000     0.147700000000     0          
O5       O      0.664000000000     0.634800000000     0.426200000000     0          
O6       O      0.703300000000     0.688500000000     0.532100000000     0          
Zr2      Zr     0.687110000000     0.669190000000     0.287360000000     0          
C15      C      0.540800000000     0.478300000000     0.784300000000     0          
C16      C      0.557600000000     0.429700000000     0.825000000000     0          
H9       H      0.590800000000     0.428300000000     0.856100000000     0          
C17      C      0.525000000000     0.383300000000     0.819200000000     0          
H10      H      0.536300000000     0.350900000000     0.846400000000     0          
C18      C      0.475500000000     0.385400000000     0.772700000000     0          
C19      C      0.458600000000     0.433900000000     0.732000000000     0          
H11      H      0.425400000000     0.435400000000     0.700900000000     0          
C20      C      0.491200000000     0.480400000000     0.737800000000     0          
H12      H      0.479900000000     0.512800000000     0.710600000000     0          
C21      C      0.436900000000     0.337500000000     0.775800000000     0          
O8       O      0.400500000000     0.338000000000     0.713200000000     0          
O9       O      0.454900000000     0.292800000000     0.800300000000     0          
Zr6?     Zr     0.686630000000     0.669220000000     0.138500000000     0          
Zr1      Zr     0.750000000000     0.750000000000     0.118210000000     0          
Zr3      Zr     0.750000000000     0.750000000000     0.456910000000     0          
Zr4?     Zr     0.750000000000     0.750000000000     0.307200000000     0          
Zr5?     Zr     0.750000000000     0.750000000000     0.970900000000     0          
C1       C      0.850600000000     0.673600000000     0.067500000000     0          
C2       C      0.877500000000     0.650600000000     0.991500000000     0          
C3       C      0.927800000000     0.612900000000     0.020300000000     0          
H1       H      0.935400000000     0.607300000000     0.081800000000     0          
C4       C      0.962000000000     0.587100000000     0.950600000000     0          
H2       H      0.991200000000     0.564500000000     0.966200000000     0          
C5       C      0.949100000000     0.597500000000     0.863300000000     0          
C6       C      0.906400000000     0.631200000000     0.837800000000     0          
C7       C      0.873300000000     0.656200000000     0.906700000000     0          
H3       H      0.845600000000     0.679300000000     0.886200000000     0          
C8       C      0.852500000000     0.672900000000     0.505400000000     0          
C9       C      0.887900000000     0.644800000000     0.578600000000     0          
C10      C      0.928300000000     0.613600000000     0.560200000000     0          
H4       H      0.933700000000     0.606000000000     0.498600000000     0          
C11      C      0.965500000000     0.589400000000     0.620800000000     0          
H5       H      0.997000000000     0.570900000000     0.603400000000     0          
C12      C      0.948900000000     0.596800000000     0.708900000000     0          
C13      C      0.904200000000     0.631500000000     0.728600000000     0          
C14      C      0.874700000000     0.655700000000     0.667800000000     0          
H6       H      0.846200000000     0.679200000000     0.683400000000     0          
N1       N      0.975000000000     0.577700000000     0.788600000000     0          
O1       O      0.821600000000     0.759400000000     0.207200000000     0          
O2       O      0.741500000000     0.822100000000     0.369800000000     0          
O3       O      0.810300000000     0.702000000000     0.039800000000     0          
O4       O      0.863900000000     0.664500000000     0.147700000000     0          
O5       O      0.865200000000     0.664000000000     0.426200000000     0          
O6       O      0.811500000000     0.703300000000     0.532100000000     0          
Zr2      Zr     0.830810000000     0.687110000000     0.287360000000     0          
C15      C      0.021700000000     0.540800000000     0.784300000000     0          
C16      C      0.070300000000     0.557600000000     0.825000000000     0          
H9       H      0.071700000000     0.590800000000     0.856100000000     0          
C17      C      0.116700000000     0.525000000000     0.819200000000     0          
H10      H      0.149100000000     0.536300000000     0.846400000000     0          
C18      C      0.114600000000     0.475500000000     0.772700000000     0          
C19      C      0.066100000000     0.458600000000     0.732000000000     0          
H11      H      0.064600000000     0.425400000000     0.700900000000     0          
C20      C      0.019600000000     0.491200000000     0.737800000000     0          
H12      H      0.987200000000     0.479900000000     0.710600000000     0          
C21      C      0.162500000000     0.436900000000     0.775800000000     0          
O8       O      0.162000000000     0.400500000000     0.713200000000     0          
O9       O      0.207200000000     0.454900000000     0.800300000000     0          
Zr6?     Zr     0.830780000000     0.686630000000     0.138500000000     0          
C1       C      0.826400000000     0.850600000000     0.067500000000     0          
C2       C      0.849400000000     0.877500000000     0.991500000000     0          
C3       C      0.887100000000     0.927800000000     0.020300000000     0          
H1       H      0.892700000000     0.935400000000     0.081800000000     0          
C4       C      0.912900000000     0.962000000000     0.950600000000     0          
H2       H      0.935500000000     0.991200000000     0.966200000000     0          
C5       C      0.902500000000     0.949100000000     0.863300000000     0          
C6       C      0.868800000000     0.906400000000     0.837800000000     0          
C7       C      0.843800000000     0.873300000000     0.906700000000     0          
H3       H      0.820700000000     0.845600000000     0.886200000000     0          
C8       C      0.827100000000     0.852500000000     0.505400000000     0          
C9       C      0.855200000000     0.887900000000     0.578600000000     0          
C10      C      0.886400000000     0.928300000000     0.560200000000     0          
H4       H      0.894000000000     0.933700000000     0.498600000000     0          
C11      C      0.910600000000     0.965500000000     0.620800000000     0          
H5       H      0.929100000000     0.997000000000     0.603400000000     0          
C12      C      0.903200000000     0.948900000000     0.708900000000     0          
C13      C      0.868500000000     0.904200000000     0.728600000000     0          
C14      C      0.844300000000     0.874700000000     0.667800000000     0          
H6       H      0.820800000000     0.846200000000     0.683400000000     0          
N1       N      0.922300000000     0.975000000000     0.788600000000     0          
O1       O      0.740600000000     0.821600000000     0.207200000000     0          
O2       O      0.677900000000     0.741500000000     0.369800000000     0          
O3       O      0.798000000000     0.810300000000     0.039800000000     0          
O4       O      0.835500000000     0.863900000000     0.147700000000     0          
O5       O      0.836000000000     0.865200000000     0.426200000000     0          
O6       O      0.796700000000     0.811500000000     0.532100000000     0          
Zr2      Zr     0.812890000000     0.830810000000     0.287360000000     0          
C15      C      0.959200000000     0.021700000000     0.784300000000     0          
C16      C      0.942400000000     0.070300000000     0.825000000000     0          
H9       H      0.909200000000     0.071700000000     0.856100000000     0          
C17      C      0.975000000000     0.116700000000     0.819200000000     0          
H10      H      0.963700000000     0.149100000000     0.846400000000     0          
C18      C      0.024500000000     0.114600000000     0.772700000000     0          
C19      C      0.041400000000     0.066100000000     0.732000000000     0          
H11      H      0.074600000000     0.064600000000     0.700900000000     0          
C20      C      0.008800000000     0.019600000000     0.737800000000     0          
H12      H      0.020100000000     0.987200000000     0.710600000000     0          
C21      C      0.063100000000     0.162500000000     0.775800000000     0          
O8       O      0.099500000000     0.162000000000     0.713200000000     0          
O9       O      0.045100000000     0.207200000000     0.800300000000     0          
Zr6?     Zr     0.813370000000     0.830780000000     0.138500000000     0          
C1       C      0.649400000000     0.826400000000     0.067500000000     0          
C2       C      0.622500000000     0.849400000000     0.991500000000     0          
C3       C      0.572200000000     0.887100000000     0.020300000000     0          
H1       H      0.564600000000     0.892700000000     0.081800000000     0          
C4       C      0.538000000000     0.912900000000     0.950600000000     0          
H2       H      0.508800000000     0.935500000000     0.966200000000     0          
C5       C      0.550900000000     0.902500000000     0.863300000000     0          
C6       C      0.593600000000     0.868800000000     0.837800000000     0          
C7       C      0.626700000000     0.843800000000     0.906700000000     0          
H3       H      0.654400000000     0.820700000000     0.886200000000     0          
C8       C      0.647500000000     0.827100000000     0.505400000000     0          
C9       C      0.612100000000     0.855200000000     0.578600000000     0          
C10      C      0.571700000000     0.886400000000     0.560200000000     0          
H4       H      0.566300000000     0.894000000000     0.498600000000     0          
C11      C      0.534500000000     0.910600000000     0.620800000000     0          
H5       H      0.503000000000     0.929100000000     0.603400000000     0          
C12      C      0.551100000000     0.903200000000     0.708900000000     0          
C13      C      0.595800000000     0.868500000000     0.728600000000     0          
C14      C      0.625300000000     0.844300000000     0.667800000000     0          
H6       H      0.653800000000     0.820800000000     0.683400000000     0          
N1       N      0.525000000000     0.922300000000     0.788600000000     0          
O1       O      0.678400000000     0.740600000000     0.207200000000     0          
O2       O      0.758500000000     0.677900000000     0.369800000000     0          
O3       O      0.689700000000     0.798000000000     0.039800000000     0          
O4       O      0.636100000000     0.835500000000     0.147700000000     0          
O5       O      0.634800000000     0.836000000000     0.426200000000     0          
O6       O      0.688500000000     0.796700000000     0.532100000000     0          
Zr2      Zr     0.669190000000     0.812890000000     0.287360000000     0          
C15      C      0.478300000000     0.959200000000     0.784300000000     0          
C16      C      0.429700000000     0.942400000000     0.825000000000     0          
H9       H      0.428300000000     0.909200000000     0.856100000000     0          
C17      C      0.383300000000     0.975000000000     0.819200000000     0          
H10      H      0.350900000000     0.963700000000     0.846400000000     0          
C18      C      0.385400000000     0.024500000000     0.772700000000     0          
C19      C      0.433900000000     0.041400000000     0.732000000000     0          
H11      H      0.435400000000     0.074600000000     0.700900000000     0          
C20      C      0.480400000000     0.008800000000     0.737800000000     0          
H12      H      0.512800000000     0.020100000000     0.710600000000     0          
C21      C      0.337500000000     0.063100000000     0.775800000000     0          
O8       O      0.338000000000     0.099500000000     0.713200000000     0          
O9       O      0.292800000000     0.045100000000     0.800300000000     0          
Zr6?     Zr     0.669220000000     0.813370000000     0.138500000000     0          
C1       C      0.326400000000     0.350600000000     0.932500000000     0          
C2       C      0.349400000000     0.377500000000     0.008500000000     0          
C3       C      0.387100000000     0.427800000000     0.979700000000     0          
H1       H      0.392700000000     0.435400000000     0.918200000000     0          
C4       C      0.412900000000     0.462000000000     0.049400000000     0          
H2       H      0.435500000000     0.491200000000     0.033800000000     0          
C5       C      0.402500000000     0.449100000000     0.136700000000     0          
C6       C      0.368800000000     0.406400000000     0.162200000000     0          
C7       C      0.343800000000     0.373300000000     0.093300000000     0          
H3       H      0.320700000000     0.345600000000     0.113800000000     0          
C8       C      0.327100000000     0.352500000000     0.494600000000     0          
C9       C      0.355200000000     0.387900000000     0.421400000000     0          
C10      C      0.386400000000     0.428300000000     0.439800000000     0          
H4       H      0.394000000000     0.433700000000     0.501400000000     0          
C11      C      0.410600000000     0.465500000000     0.379200000000     0          
H5       H      0.429100000000     0.497000000000     0.396600000000     0          
C12      C      0.403200000000     0.448900000000     0.291100000000     0          
C13      C      0.368500000000     0.404200000000     0.271400000000     0          
C14      C      0.344300000000     0.374700000000     0.332200000000     0          
H6       H      0.320800000000     0.346200000000     0.316600000000     0          
N1       N      0.422300000000     0.475000000000     0.211400000000     0          
O1       O      0.240600000000     0.321600000000     0.792800000000     0          
O2       O      0.177900000000     0.241500000000     0.630200000000     0          
O3       O      0.298000000000     0.310300000000     0.960200000000     0          
O4       O      0.335500000000     0.363900000000     0.852300000000     0          
O5       O      0.336000000000     0.365200000000     0.573800000000     0          
O6       O      0.296700000000     0.311500000000     0.467900000000     0          
Zr2      Zr     0.312890000000     0.330810000000     0.712640000000     0          
C15      C      0.459200000000     0.521700000000     0.215700000000     0          
C16      C      0.442400000000     0.570300000000     0.175000000000     0          
H9       H      0.409200000000     0.571700000000     0.143900000000     0          
C17      C      0.475000000000     0.616700000000     0.180800000000     0          
H10      H      0.463700000000     0.649100000000     0.153600000000     0          
C18      C      0.524500000000     0.614600000000     0.227300000000     0          
C19      C      0.541400000000     0.566100000000     0.268000000000     0          
H11      H      0.574600000000     0.564600000000     0.299100000000     0          
C20      C      0.508800000000     0.519600000000     0.262200000000     0          
H12      H      0.520100000000     0.487200000000     0.289400000000     0          
C21      C      0.563100000000     0.662500000000     0.224200000000     0          
O8       O      0.599500000000     0.662000000000     0.286800000000     0          
O9       O      0.545100000000     0.707200000000     0.199700000000     0          
Zr6?     Zr     0.313370000000     0.330780000000     0.861500000000     0          
Zr1      Zr     0.250000000000     0.250000000000     0.881790000000     0          
Zr3      Zr     0.250000000000     0.250000000000     0.543090000000     0          
Zr4?     Zr     0.250000000000     0.250000000000     0.692800000000     0          
Zr5?     Zr     0.250000000000     0.250000000000     0.029100000000     0          
C1       C      0.149400000000     0.326400000000     0.932500000000     0          
C2       C      0.122500000000     0.349400000000     0.008500000000     0          
C3       C      0.072200000000     0.387100000000     0.979700000000     0          
H1       H      0.064600000000     0.392700000000     0.918200000000     0          
C4       C      0.038000000000     0.412900000000     0.049400000000     0          
H2       H      0.008800000000     0.435500000000     0.033800000000     0          
C5       C      0.050900000000     0.402500000000     0.136700000000     0          
C6       C      0.093600000000     0.368800000000     0.162200000000     0          
C7       C      0.126700000000     0.343800000000     0.093300000000     0          
H3       H      0.154400000000     0.320700000000     0.113800000000     0          
C8       C      0.147500000000     0.327100000000     0.494600000000     0          
C9       C      0.112100000000     0.355200000000     0.421400000000     0          
C10      C      0.071700000000     0.386400000000     0.439800000000     0          
H4       H      0.066300000000     0.394000000000     0.501400000000     0          
C11      C      0.034500000000     0.410600000000     0.379200000000     0          
H5       H      0.003000000000     0.429100000000     0.396600000000     0          
C12      C      0.051100000000     0.403200000000     0.291100000000     0          
C13      C      0.095800000000     0.368500000000     0.271400000000     0          
C14      C      0.125300000000     0.344300000000     0.332200000000     0          
H6       H      0.153800000000     0.320800000000     0.316600000000     0          
N1       N      0.025000000000     0.422300000000     0.211400000000     0          
O1       O      0.178400000000     0.240600000000     0.792800000000     0          
O2       O      0.258500000000     0.177900000000     0.630200000000     0          
O3       O      0.189700000000     0.298000000000     0.960200000000     0          
O4       O      0.136100000000     0.335500000000     0.852300000000     0          
O5       O      0.134800000000     0.336000000000     0.573800000000     0          
O6       O      0.188500000000     0.296700000000     0.467900000000     0          
Zr2      Zr     0.169190000000     0.312890000000     0.712640000000     0          
C15      C      0.978300000000     0.459200000000     0.215700000000     0          
C16      C      0.929700000000     0.442400000000     0.175000000000     0          
H9       H      0.928300000000     0.409200000000     0.143900000000     0          
C17      C      0.883300000000     0.475000000000     0.180800000000     0          
H10      H      0.850900000000     0.463700000000     0.153600000000     0          
C18      C      0.885400000000     0.524500000000     0.227300000000     0          
C19      C      0.933900000000     0.541400000000     0.268000000000     0          
H11      H      0.935400000000     0.574600000000     0.299100000000     0          
C20      C      0.980400000000     0.508800000000     0.262200000000     0          
H12      H      0.012800000000     0.520100000000     0.289400000000     0          
C21      C      0.837500000000     0.563100000000     0.224200000000     0          
O8       O      0.838000000000     0.599500000000     0.286800000000     0          
O9       O      0.792800000000     0.545100000000     0.199700000000     0          
Zr6?     Zr     0.169220000000     0.313370000000     0.861500000000     0          
C1       C      0.173600000000     0.149400000000     0.932500000000     0          
C2       C      0.150600000000     0.122500000000     0.008500000000     0          
C3       C      0.112900000000     0.072200000000     0.979700000000     0          
H1       H      0.107300000000     0.064600000000     0.918200000000     0          
C4       C      0.087100000000     0.038000000000     0.049400000000     0          
H2       H      0.064500000000     0.008800000000     0.033800000000     0          
C5       C      0.097500000000     0.050900000000     0.136700000000     0          
C6       C      0.131200000000     0.093600000000     0.162200000000     0          
C7       C      0.156200000000     0.126700000000     0.093300000000     0          
H3       H      0.179300000000     0.154400000000     0.113800000000     0          
C8       C      0.172900000000     0.147500000000     0.494600000000     0          
C9       C      0.144800000000     0.112100000000     0.421400000000     0          
C10      C      0.113600000000     0.071700000000     0.439800000000     0          
H4       H      0.106000000000     0.066300000000     0.501400000000     0          
C11      C      0.089400000000     0.034500000000     0.379200000000     0          
H5       H      0.070900000000     0.003000000000     0.396600000000     0          
C12      C      0.096800000000     0.051100000000     0.291100000000     0          
C13      C      0.131500000000     0.095800000000     0.271400000000     0          
C14      C      0.155700000000     0.125300000000     0.332200000000     0          
H6       H      0.179200000000     0.153800000000     0.316600000000     0          
N1       N      0.077700000000     0.025000000000     0.211400000000     0          
O1       O      0.259400000000     0.178400000000     0.792800000000     0          
O2       O      0.322100000000     0.258500000000     0.630200000000     0          
O3       O      0.202000000000     0.189700000000     0.960200000000     0          
O4       O      0.164500000000     0.136100000000     0.852300000000     0          
O5       O      0.164000000000     0.134800000000     0.573800000000     0          
O6       O      0.203300000000     0.188500000000     0.467900000000     0          
Zr2      Zr     0.187110000000     0.169190000000     0.712640000000     0          
C15      C      0.040800000000     0.978300000000     0.215700000000     0          
C16      C      0.057600000000     0.929700000000     0.175000000000     0          
H9       H      0.090800000000     0.928300000000     0.143900000000     0          
C17      C      0.025000000000     0.883300000000     0.180800000000     0          
H10      H      0.036300000000     0.850900000000     0.153600000000     0          
C18      C      0.975500000000     0.885400000000     0.227300000000     0          
C19      C      0.958600000000     0.933900000000     0.268000000000     0          
H11      H      0.925400000000     0.935400000000     0.299100000000     0          
C20      C      0.991200000000     0.980400000000     0.262200000000     0          
H12      H      0.979900000000     0.012800000000     0.289400000000     0          
C21      C      0.936900000000     0.837500000000     0.224200000000     0          
O8       O      0.900500000000     0.838000000000     0.286800000000     0          
O9       O      0.954900000000     0.792800000000     0.199700000000     0          
Zr6?     Zr     0.186630000000     0.169220000000     0.861500000000     0          
C1       C      0.350600000000     0.173600000000     0.932500000000     0          
C2       C      0.377500000000     0.150600000000     0.008500000000     0          
C3       C      0.427800000000     0.112900000000     0.979700000000     0          
H1       H      0.435400000000     0.107300000000     0.918200000000     0          
C4       C      0.462000000000     0.087100000000     0.049400000000     0          
H2       H      0.491200000000     0.064500000000     0.033800000000     0          
C5       C      0.449100000000     0.097500000000     0.136700000000     0          
C6       C      0.406400000000     0.131200000000     0.162200000000     0          
C7       C      0.373300000000     0.156200000000     0.093300000000     0          
H3       H      0.345600000000     0.179300000000     0.113800000000     0          
C8       C      0.352500000000     0.172900000000     0.494600000000     0          
C9       C      0.387900000000     0.144800000000     0.421400000000     0          
C10      C      0.428300000000     0.113600000000     0.439800000000     0          
H4       H      0.433700000000     0.106000000000     0.501400000000     0          
C11      C      0.465500000000     0.089400000000     0.379200000000     0          
H5       H      0.497000000000     0.070900000000     0.396600000000     0          
C12      C      0.448900000000     0.096800000000     0.291100000000     0          
C13      C      0.404200000000     0.131500000000     0.271400000000     0          
C14      C      0.374700000000     0.155700000000     0.332200000000     0          
H6       H      0.346200000000     0.179200000000     0.316600000000     0          
N1       N      0.475000000000     0.077700000000     0.211400000000     0          
O1       O      0.321600000000     0.259400000000     0.792800000000     0          
O2       O      0.241500000000     0.322100000000     0.630200000000     0          
O3       O      0.310300000000     0.202000000000     0.960200000000     0          
O4       O      0.363900000000     0.164500000000     0.852300000000     0          
O5       O      0.365200000000     0.164000000000     0.573800000000     0          
O6       O      0.311500000000     0.203300000000     0.467900000000     0          
Zr2      Zr     0.330810000000     0.187110000000     0.712640000000     0          
C15      C      0.521700000000     0.040800000000     0.215700000000     0          
C16      C      0.570300000000     0.057600000000     0.175000000000     0          
H9       H      0.571700000000     0.090800000000     0.143900000000     0          
C17      C      0.616700000000     0.025000000000     0.180800000000     0          
H10      H      0.649100000000     0.036300000000     0.153600000000     0          
C18      C      0.614600000000     0.975500000000     0.227300000000     0          
C19      C      0.566100000000     0.958600000000     0.268000000000     0          
H11      H      0.564600000000     0.925400000000     0.299100000000     0          
C20      C      0.519600000000     0.991200000000     0.262200000000     0          
H12      H      0.487200000000     0.979900000000     0.289400000000     0          
C21      C      0.662500000000     0.936900000000     0.224200000000     0          
O8       O      0.662000000000     0.900500000000     0.286800000000     0          
O9       O      0.707200000000     0.954900000000     0.199700000000     0          
Zr6?     Zr     0.330780000000     0.186630000000     0.861500000000     0          


