data_GAZDAP

_audit_creation_method RASPA-1.0
_audit_creation_date 2020-4-3
_audit_author_name 'Rocio Bueno-Perez'

_cell_length_a    10.63
_cell_length_b    14.49
_cell_length_c    18.01
_cell_angle_alpha 111.74
_cell_angle_beta  105.82
_cell_angle_gamma 92.75
_cell_volume      2444.47

_symmetry_cell_setting          triclinic
_symmetry_space_group_name_Hall 'P 1'
_symmetry_space_group_name_H-M  'P 1'
_symmetry_Int_Tables_number     1

_symmetry_equiv_pos_as_xyz 'x,y,z'

loop_
_atom_site_label
_atom_site_type_symbol
_atom_site_fract_x
_atom_site_fract_y
_atom_site_fract_z
_atom_site_charge
Zr1      Zr     0.997780000000     0.826020000000     0.001190000000     0          
Zr2      Zr     0.188710000000     0.066400000000     0.133360000000     0          
Zr3      Zr     0.854020000000     0.039840000000     0.091320000000     0          
N1       N      0.341000000000     0.697900000000     0.421300000000     0          
N2       N      0.892600000000     0.670100000000     0.370500000000     0          
O1       O      0.016800000000     0.964100000000     0.096200000000     0          
O2       O      0.200800000000     0.929700000000     0.026000000000     0          
O3       O      0.794600000000     0.902100000000     0.976900000000     0          
O4       O      0.640400000000     0.035100000000     0.082900000000     0          
H1       H      0.583700000000     0.983400000000     0.076700000000     0          
H2       H      0.631500000000     0.088500000000     0.125100000000     0          
O5       O      0.879400000000     0.274800000000     0.062900000000     0          
O6       O      0.811000000000     0.200100000000     0.137200000000     0          
O7       O      0.872700000000     0.781600000000     0.064900000000     0          
O8       O      0.801400000000     0.918800000000     0.138900000000     0          
O9       O      0.140600000000     0.801700000000     0.103300000000     0          
O10      O      0.243800000000     0.955800000000     0.196400000000     0          
O11      O      0.152500000000     0.299900000000     0.098500000000     0          
O12      O      0.262500000000     0.237800000000     0.189800000000     0          
O13      O      0.599600000000     0.913100000000     0.821300000000     0          
O14      O      0.436000000000     0.803100000000     0.810600000000     0          
O15      O      0.064900000000     0.894500000000     0.770200000000     0          
O16      O      0.847600000000     0.870000000000     0.742400000000     0          
C1       C      0.203800000000     0.865600000000     0.176500000000     0          
C2       C      0.229400000000     0.825900000000     0.246700000000     0          
C3       C      0.221000000000     0.722700000000     0.225100000000     0          
H3       H      0.191100000000     0.678300000000     0.168700000000     0          
C4       C      0.257100000000     0.685800000000     0.287600000000     0          
C5       C      0.301700000000     0.752100000000     0.371800000000     0          
C6       C      0.310200000000     0.855300000000     0.393400000000     0          
H4       H      0.340000000000     0.899700000000     0.449800000000     0          
C7       C      0.274000000000     0.892200000000     0.330900000000     0          
H5       H      0.279600000000     0.961200000000     0.345400000000     0          
C8       C      0.261100000000     0.586900000000     0.285800000000     0          
C9       C      0.320600000000     0.599000000000     0.368500000000     0          
C10      C      0.352500000000     0.516000000000     0.386300000000     0          
H6       H      0.392300000000     0.524100000000     0.441700000000     0          
C11      C      0.324800000000     0.420800000000     0.321500000000     0          
H7       H      0.346100000000     0.365300000000     0.333400000000     0          
C12      C      0.265200000000     0.408700000000     0.238800000000     0          
C13      C      0.233400000000     0.491800000000     0.220900000000     0          
H8       H      0.193500000000     0.483700000000     0.165600000000     0          
C14      C      0.220400000000     0.305900000000     0.169500000000     0          
C15      C      0.385500000000     0.734400000000     0.510600000000     0          
C16      C      0.483700000000     0.818500000000     0.559500000000     0          
H9       H      0.522900000000     0.851400000000     0.533800000000     0          
C17      C      0.523100000000     0.853600000000     0.646700000000     0          
H10      H      0.588700000000     0.909900000000     0.679400000000     0          
C18      C      0.464400000000     0.804500000000     0.685100000000     0          
C19      C      0.366300000000     0.720300000000     0.636300000000     0          
H11      H      0.327000000000     0.687400000000     0.662000000000     0          
C20      C      0.326900000000     0.685200000000     0.549100000000     0          
H12      H      0.261200000000     0.628900000000     0.516400000000     0          
C21      C      0.503100000000     0.841800000000     0.779800000000     0          
C22      C      0.839800000000     0.835500000000     0.128000000000     0          
C23      C      0.853400000000     0.798000000000     0.197200000000     0          
C24      C      0.866900000000     0.862600000000     0.279400000000     0          
H13      H      0.865000000000     0.930800000000     0.292700000000     0          
C25      C      0.883400000000     0.825200000000     0.341600000000     0          
H14      H      0.892500000000     0.868400000000     0.396500000000     0          
C26      C      0.886300000000     0.723100000000     0.321600000000     0          
C27      C      0.872700000000     0.658500000000     0.239400000000     0          
C28      C      0.856200000000     0.696000000000     0.177200000000     0          
H15      H      0.847100000000     0.652700000000     0.122200000000     0          
C29      C      0.869500000000     0.558300000000     0.238900000000     0          
C30      C      0.881300000000     0.567900000000     0.320300000000     0          
C31      C      0.882500000000     0.483000000000     0.339000000000     0          
H16      H      0.890400000000     0.489400000000     0.393500000000     0          
C32      C      0.871900000000     0.388600000000     0.276300000000     0          
H17      H      0.872700000000     0.331800000000     0.288800000000     0          
C33      C      0.860100000000     0.379000000000     0.194900000000     0          
C34      C      0.858900000000     0.463900000000     0.176200000000     0          
H18      H      0.851100000000     0.457500000000     0.121700000000     0          
C35      C      0.907700000000     0.711000000000     0.458300000000     0          
C36      C      0.026100000000     0.773500000000     0.513400000000     0          
H19      H      0.095400000000     0.782900000000     0.493300000000     0          
C37      C      0.040900000000     0.822000000000     0.598600000000     0          
H20      H      0.120100000000     0.863800000000     0.635500000000     0          
C38      C      0.937400000000     0.807900000000     0.628700000000     0          
C39      C      0.819000000000     0.745500000000     0.573600000000     0          
H21      H      0.749700000000     0.736100000000     0.593800000000     0          
C40      C      0.804200000000     0.697000000000     0.488400000000     0          
H22      H      0.725000000000     0.655200000000     0.451600000000     0          
C41      C      0.952000000000     0.863100000000     0.721500000000     0          
C42      C      0.845400000000     0.275800000000     0.125500000000     0          
O17      O      0.982700000000     0.873200000000     0.905300000000     0          
O18      O      0.455100000000     0.874200000000     0.063700000000     0          
H23      H      0.379900000000     0.896100000000     0.055800000000     0          
H24      H      0.468000000000     0.832300000000     0.019700000000     0          
O19      O      0.568000000000     0.766400000000     0.947500000000     0          
H25      H      0.638100000000     0.808200000000     0.954300000000     0          
H26      H      0.506200000000     0.743200000000     0.895300000000     0          
Zr1A     Zr     0.002220000000     0.173980000000     0.998810000000     0          
Zr2A     Zr     0.811290000000     0.933600000000     0.866640000000     0          
Zr3A     Zr     0.145980000000     0.960160000000     0.908680000000     0          
O2A      O      0.799200000000     0.070300000000     0.974000000000     0          
O3A      O      0.205400000000     0.097900000000     0.023100000000     0          
O5A      O      0.120600000000     0.725200000000     0.937100000000     0          
O11A     O      0.847500000000     0.700100000000     0.901500000000     0          
O13A     O      0.400400000000     0.086900000000     0.178700000000     0          
O15A     O      0.935100000000     0.105500000000     0.229800000000     0          
O16A     O      0.152400000000     0.130000000000     0.257600000000     0          
O17A     O      0.017300000000     0.126800000000     0.094700000000     0          
N1       N      0.659000000000     0.302100000000     0.578700000000     0          
N2       N      0.107400000000     0.329900000000     0.629500000000     0          
O1       O      0.983200000000     0.035900000000     0.903800000000     0          
O4       O      0.359600000000     0.964900000000     0.917100000000     0          
H1       H      0.416300000000     0.016600000000     0.923300000000     0          
H2       H      0.368500000000     0.911500000000     0.874900000000     0          
O6       O      0.189000000000     0.799900000000     0.862800000000     0          
O7       O      0.127300000000     0.218400000000     0.935100000000     0          
O8       O      0.198600000000     0.081200000000     0.861100000000     0          
O9       O      0.859400000000     0.198300000000     0.896700000000     0          
O10      O      0.756200000000     0.044200000000     0.803600000000     0          
O12      O      0.737500000000     0.762200000000     0.810200000000     0          
O14      O      0.564000000000     0.196900000000     0.189400000000     0          
C1       C      0.796200000000     0.134400000000     0.823500000000     0          
C2       C      0.770600000000     0.174100000000     0.753300000000     0          
C3       C      0.779000000000     0.277300000000     0.774900000000     0          
H3       H      0.808900000000     0.321700000000     0.831300000000     0          
C4       C      0.742900000000     0.314200000000     0.712400000000     0          
C5       C      0.698300000000     0.247900000000     0.628200000000     0          
C6       C      0.689800000000     0.144700000000     0.606600000000     0          
H4       H      0.660000000000     0.100300000000     0.550200000000     0          
C7       C      0.726000000000     0.107800000000     0.669100000000     0          
H5       H      0.720400000000     0.038800000000     0.654600000000     0          
C8       C      0.738900000000     0.413100000000     0.714200000000     0          
C9       C      0.679400000000     0.401000000000     0.631500000000     0          
C10      C      0.647500000000     0.484000000000     0.613700000000     0          
H6       H      0.607700000000     0.475900000000     0.558300000000     0          
C11      C      0.675200000000     0.579200000000     0.678500000000     0          
H7       H      0.653900000000     0.634700000000     0.666600000000     0          
C12      C      0.734800000000     0.591300000000     0.761200000000     0          
C13      C      0.766600000000     0.508200000000     0.779100000000     0          
H8       H      0.806500000000     0.516300000000     0.834400000000     0          
C14      C      0.779600000000     0.694100000000     0.830500000000     0          
C15      C      0.614500000000     0.265600000000     0.489400000000     0          
C16      C      0.516300000000     0.181500000000     0.440500000000     0          
H9       H      0.477100000000     0.148600000000     0.466200000000     0          
C17      C      0.476900000000     0.146400000000     0.353300000000     0          
H10      H      0.411300000000     0.090100000000     0.320600000000     0          
C18      C      0.535600000000     0.195500000000     0.314900000000     0          
C19      C      0.633700000000     0.279700000000     0.363700000000     0          
H11      H      0.673000000000     0.312600000000     0.338000000000     0          
C20      C      0.673100000000     0.314800000000     0.450900000000     0          
H12      H      0.738800000000     0.371100000000     0.483600000000     0          
C21      C      0.496900000000     0.158200000000     0.220200000000     0          
C22      C      0.160200000000     0.164500000000     0.872000000000     0          
C23      C      0.146600000000     0.202000000000     0.802800000000     0          
C24      C      0.133100000000     0.137400000000     0.720600000000     0          
H13      H      0.135000000000     0.069200000000     0.707300000000     0          
C25      C      0.116600000000     0.174800000000     0.658400000000     0          
H14      H      0.107500000000     0.131600000000     0.603500000000     0          
C26      C      0.113700000000     0.276900000000     0.678400000000     0          
C27      C      0.127300000000     0.341500000000     0.760600000000     0          
C28      C      0.143800000000     0.304000000000     0.822800000000     0          
H15      H      0.152900000000     0.347300000000     0.877800000000     0          
C29      C      0.130500000000     0.441700000000     0.761100000000     0          
C30      C      0.118700000000     0.432100000000     0.679700000000     0          
C31      C      0.117500000000     0.517000000000     0.661000000000     0          
H16      H      0.109600000000     0.510600000000     0.606500000000     0          
C32      C      0.128100000000     0.611400000000     0.723700000000     0          
H17      H      0.127300000000     0.668200000000     0.711200000000     0          
C33      C      0.139900000000     0.621000000000     0.805100000000     0          
C34      C      0.141100000000     0.536100000000     0.823800000000     0          
H18      H      0.148900000000     0.542500000000     0.878300000000     0          
C35      C      0.092300000000     0.289000000000     0.541700000000     0          
C36      C      0.973900000000     0.226500000000     0.486600000000     0          
H19      H      0.904600000000     0.217100000000     0.506700000000     0          
C37      C      0.959100000000     0.178000000000     0.401400000000     0          
H20      H      0.879900000000     0.136200000000     0.364500000000     0          
C38      C      0.062600000000     0.192100000000     0.371300000000     0          
C39      C      0.181000000000     0.254500000000     0.426400000000     0          
H21      H      0.250300000000     0.263900000000     0.406200000000     0          
C40      C      0.195800000000     0.303000000000     0.511600000000     0          
H22      H      0.275000000000     0.344800000000     0.548400000000     0          
C41      C      0.048000000000     0.136900000000     0.278500000000     0          
C42      C      0.154600000000     0.724200000000     0.874500000000     0          
O18      O      0.544900000000     0.125800000000     0.936300000000     0          
H23      H      0.620100000000     0.103900000000     0.944200000000     0          
H24      H      0.532000000000     0.167700000000     0.980300000000     0          
O19      O      0.432000000000     0.233600000000     0.052500000000     0          
H25      H      0.361900000000     0.191800000000     0.045700000000     0          
H26      H      0.493800000000     0.256800000000     0.104700000000     0          


