data_GAZGAS

_audit_creation_method RASPA-1.0
_audit_creation_date 2020-11-2
_audit_author_name 'Rocio Bueno-Perez'

_cell_length_a    17.28
_cell_length_b    20.57
_cell_length_c    14.57
_cell_angle_alpha 90
_cell_angle_beta  90
_cell_angle_gamma 90
_cell_volume      5178.9

_symmetry_cell_setting          triclinic
_symmetry_space_group_name_Hall 'P 1'
_symmetry_space_group_name_H-M  'P 1'
_symmetry_Int_Tables_number     1

_symmetry_equiv_pos_as_xyz 'x,y,z'

loop_
_atom_site_label
_atom_site_type_symbol
_atom_site_fract_x
_atom_site_fract_y
_atom_site_fract_z
_atom_site_charge
Zr1      Zr     0.148950000000     0.663690000000     0.301630000000     0          
O2       O      0.114700000000     0.622500000000     0.439100000000     0          
O3       O      0.173500000000     0.683600000000     0.547100000000     0          
O4       O      0.102100000000     0.631500000000     0.164500000000     0          
O5       O      0.169200000000     0.685600000000     0.056300000000     0          
O6       O      0.184800000000     0.558400000000     0.300700000000     0          
O7       O      0.022500000000     0.664800000000     0.306300000000     0          
N8       N      0.938800000000     0.535100000000     0.800500000000     0          
H9       H      0.898380000000     0.510660000000     0.800340000000     0          
C10      C      0.125100000000     0.640600000000     0.521100000000     0          
C11      C      0.076900000000     0.608400000000     0.594100000000     0          
C12      C      0.090600000000     0.622000000000     0.687000000000     0          
H13      H      0.131270000000     0.648940000000     0.704380000000     0          
C14      C      0.042500000000     0.594400000000     0.752500000000     0          
C15      C      0.980400000000     0.554100000000     0.723100000000     0          
C16      C      0.966000000000     0.540100000000     0.632200000000     0          
H17      H      0.925470000000     0.513120000000     0.614600000000     0          
C18      C      0.014700000000     0.568000000000     0.568900000000     0          
H19      H      0.006170000000     0.559800000000     0.506930000000     0          
C20      C      0.038700000000     0.598300000000     0.851100000000     0          
C21      C      0.972900000000     0.561900000000     0.877600000000     0          
C22      C      0.949300000000     0.558400000000     0.970600000000     0          
H23      H      0.903990000000     0.537240000000     0.987610000000     0          
C24      C      0.996100000000     0.587600000000     0.034400000000     0          
H25      H      0.982830000000     0.585070000000     0.096190000000     0          
C26      C      0.064000000000     0.621600000000     0.009100000000     0          
C27      C      0.084300000000     0.627400000000     0.917200000000     0          
H28      H      0.128320000000     0.650550000000     0.900430000000     0          
C29      C      0.117200000000     0.649700000000     0.082300000000     0          
O30      O      0.895600000000     0.642400000000     0.308500000000     0          
C31      C      0.964600000000     0.638500000000     0.321800000000     0          
H32      H      0.974640000000     0.601630000000     0.356710000000     0          
Zr33     Zr     0.351050000000     0.836310000000     0.301630000000     0          
O34      O      0.385300000000     0.877500000000     0.439100000000     0          
O35      O      0.326500000000     0.816400000000     0.547100000000     0          
O36      O      0.397900000000     0.868500000000     0.164500000000     0          
O37      O      0.330800000000     0.814400000000     0.056300000000     0          
O38      O      0.315200000000     0.941600000000     0.300700000000     0          
O39      O      0.477500000000     0.835200000000     0.306300000000     0          
N40      N      0.561200000000     0.964900000000     0.800500000000     0          
H41      H      0.601620000000     0.989340000000     0.800340000000     0          
C42      C      0.374900000000     0.859400000000     0.521100000000     0          
C43      C      0.423100000000     0.891600000000     0.594100000000     0          
C44      C      0.409400000000     0.878000000000     0.687000000000     0          
H45      H      0.368730000000     0.851060000000     0.704380000000     0          
C46      C      0.457500000000     0.905600000000     0.752500000000     0          
C47      C      0.519600000000     0.945900000000     0.723100000000     0          
C48      C      0.534000000000     0.959900000000     0.632200000000     0          
H49      H      0.574530000000     0.986880000000     0.614600000000     0          
C50      C      0.485300000000     0.932000000000     0.568900000000     0          
H51      H      0.493830000000     0.940200000000     0.506930000000     0          
C52      C      0.461300000000     0.901700000000     0.851100000000     0          
C53      C      0.527100000000     0.938100000000     0.877600000000     0          
C54      C      0.550700000000     0.941600000000     0.970600000000     0          
H55      H      0.596010000000     0.962760000000     0.987610000000     0          
C56      C      0.503900000000     0.912400000000     0.034400000000     0          
H57      H      0.517170000000     0.914930000000     0.096190000000     0          
C58      C      0.436000000000     0.878400000000     0.009100000000     0          
C59      C      0.415700000000     0.872600000000     0.917200000000     0          
H60      H      0.371680000000     0.849450000000     0.900430000000     0          
C61      C      0.382800000000     0.850300000000     0.082300000000     0          
O62      O      0.604400000000     0.857600000000     0.308500000000     0          
C63      C      0.535400000000     0.861500000000     0.321800000000     0          
H64      H      0.525360000000     0.898370000000     0.356710000000     0          
H65      H      0.224420000000     0.057950000000     0.357220000000     0          
H66      H      0.223210000000     0.059490000000     0.249650000000     0          
H67      H      0.302370000000     0.058730000000     0.302190000000     0          
Zr68     Zr     0.851050000000     0.163690000000     0.698370000000     0          
O69      O      0.885300000000     0.122500000000     0.560900000000     0          
O70      O      0.826500000000     0.183600000000     0.452900000000     0          
O71      O      0.897900000000     0.131500000000     0.835500000000     0          
O72      O      0.830800000000     0.185600000000     0.943700000000     0          
O73      O      0.815200000000     0.058400000000     0.699300000000     0          
O74      O      0.977500000000     0.164800000000     0.693700000000     0          
N75      N      0.061200000000     0.035100000000     0.199500000000     0          
H76      H      0.101620000000     0.010660000000     0.199660000000     0          
C77      C      0.874900000000     0.140600000000     0.478900000000     0          
C78      C      0.923100000000     0.108400000000     0.405900000000     0          
C79      C      0.909400000000     0.122000000000     0.313000000000     0          
H80      H      0.868730000000     0.148940000000     0.295620000000     0          
C81      C      0.957500000000     0.094400000000     0.247500000000     0          
C82      C      0.019600000000     0.054100000000     0.276900000000     0          
C83      C      0.034000000000     0.040100000000     0.367800000000     0          
H84      H      0.074530000000     0.013120000000     0.385400000000     0          
C85      C      0.985300000000     0.068000000000     0.431100000000     0          
H86      H      0.993830000000     0.059800000000     0.493070000000     0          
C87      C      0.961300000000     0.098300000000     0.148900000000     0          
C88      C      0.027100000000     0.061900000000     0.122400000000     0          
C89      C      0.050700000000     0.058400000000     0.029400000000     0          
H90      H      0.096010000000     0.037240000000     0.012390000000     0          
C91      C      0.003900000000     0.087600000000     0.965600000000     0          
H92      H      0.017170000000     0.085070000000     0.903810000000     0          
C93      C      0.936000000000     0.121600000000     0.990900000000     0          
C94      C      0.915700000000     0.127400000000     0.082800000000     0          
H95      H      0.871680000000     0.150550000000     0.099570000000     0          
C96      C      0.882800000000     0.149700000000     0.917700000000     0          
O97      O      0.104400000000     0.142400000000     0.691500000000     0          
C98      C      0.035400000000     0.138500000000     0.678200000000     0          
H99      H      0.025360000000     0.101630000000     0.643290000000     0          
H100     H      0.724420000000     0.942050000000     0.642780000000     0          
H101     H      0.723210000000     0.940510000000     0.750350000000     0          
H102     H      0.802370000000     0.941270000000     0.697810000000     0          
Zr103    Zr     0.648950000000     0.336310000000     0.698370000000     0          
O104     O      0.614700000000     0.377500000000     0.560900000000     0          
O105     O      0.673500000000     0.316400000000     0.452900000000     0          
O106     O      0.602100000000     0.368500000000     0.835500000000     0          
O107     O      0.669200000000     0.314400000000     0.943700000000     0          
O108     O      0.684800000000     0.441600000000     0.699300000000     0          
O109     O      0.522500000000     0.335200000000     0.693700000000     0          
N110     N      0.438800000000     0.464900000000     0.199500000000     0          
H111     H      0.398380000000     0.489340000000     0.199660000000     0          
C112     C      0.625100000000     0.359400000000     0.478900000000     0          
C113     C      0.576900000000     0.391600000000     0.405900000000     0          
C114     C      0.590600000000     0.378000000000     0.313000000000     0          
H115     H      0.631270000000     0.351060000000     0.295620000000     0          
C116     C      0.542500000000     0.405600000000     0.247500000000     0          
C117     C      0.480400000000     0.445900000000     0.276900000000     0          
C118     C      0.466000000000     0.459900000000     0.367800000000     0          
H119     H      0.425470000000     0.486880000000     0.385400000000     0          
C120     C      0.514700000000     0.432000000000     0.431100000000     0          
H121     H      0.506170000000     0.440200000000     0.493070000000     0          
C122     C      0.538700000000     0.401700000000     0.148900000000     0          
C123     C      0.472900000000     0.438100000000     0.122400000000     0          
C124     C      0.449300000000     0.441600000000     0.029400000000     0          
H125     H      0.403990000000     0.462760000000     0.012390000000     0          
C126     C      0.496100000000     0.412400000000     0.965600000000     0          
H127     H      0.482830000000     0.414930000000     0.903810000000     0          
C128     C      0.564000000000     0.378400000000     0.990900000000     0          
C129     C      0.584300000000     0.372600000000     0.082800000000     0          
H130     H      0.628320000000     0.349450000000     0.099570000000     0          
C131     C      0.617200000000     0.350300000000     0.917700000000     0          
O132     O      0.395600000000     0.357600000000     0.691500000000     0          
C133     C      0.464600000000     0.361500000000     0.678200000000     0          
H134     H      0.474640000000     0.398370000000     0.643290000000     0          
H135     H      0.775580000000     0.557950000000     0.642780000000     0          
H136     H      0.776790000000     0.559490000000     0.750350000000     0          
H137     H      0.697630000000     0.558730000000     0.697810000000     0          
Zr138    Zr     0.851050000000     0.336310000000     0.698370000000     0          
O139     O      0.885300000000     0.377500000000     0.560900000000     0          
O140     O      0.826500000000     0.316400000000     0.452900000000     0          
O141     O      0.897900000000     0.368500000000     0.835500000000     0          
O142     O      0.830800000000     0.314400000000     0.943700000000     0          
O143     O      0.815200000000     0.441600000000     0.699300000000     0          
O144     O      0.977500000000     0.335200000000     0.693700000000     0          
N145     N      0.061200000000     0.464900000000     0.199500000000     0          
H146     H      0.101620000000     0.489340000000     0.199660000000     0          
C147     C      0.874900000000     0.359400000000     0.478900000000     0          
C148     C      0.923100000000     0.391600000000     0.405900000000     0          
C149     C      0.909400000000     0.378000000000     0.313000000000     0          
H150     H      0.868730000000     0.351060000000     0.295620000000     0          
C151     C      0.957500000000     0.405600000000     0.247500000000     0          
C152     C      0.019600000000     0.445900000000     0.276900000000     0          
C153     C      0.034000000000     0.459900000000     0.367800000000     0          
H154     H      0.074530000000     0.486880000000     0.385400000000     0          
C155     C      0.985300000000     0.432000000000     0.431100000000     0          
H156     H      0.993830000000     0.440200000000     0.493070000000     0          
C157     C      0.961300000000     0.401700000000     0.148900000000     0          
C158     C      0.027100000000     0.438100000000     0.122400000000     0          
C159     C      0.050700000000     0.441600000000     0.029400000000     0          
H160     H      0.096010000000     0.462760000000     0.012390000000     0          
C161     C      0.003900000000     0.412400000000     0.965600000000     0          
H162     H      0.017170000000     0.414930000000     0.903810000000     0          
C163     C      0.936000000000     0.378400000000     0.990900000000     0          
C164     C      0.915700000000     0.372600000000     0.082800000000     0          
H165     H      0.871680000000     0.349450000000     0.099570000000     0          
C166     C      0.882800000000     0.350300000000     0.917700000000     0          
O167     O      0.104400000000     0.357600000000     0.691500000000     0          
C168     C      0.035400000000     0.361500000000     0.678200000000     0          
H169     H      0.025360000000     0.398370000000     0.643290000000     0          
Zr170    Zr     0.648950000000     0.163690000000     0.698370000000     0          
O171     O      0.614700000000     0.122500000000     0.560900000000     0          
O172     O      0.673500000000     0.183600000000     0.452900000000     0          
O173     O      0.602100000000     0.131500000000     0.835500000000     0          
O174     O      0.669200000000     0.185600000000     0.943700000000     0          
O175     O      0.684800000000     0.058400000000     0.699300000000     0          
O176     O      0.522500000000     0.164800000000     0.693700000000     0          
N177     N      0.438800000000     0.035100000000     0.199500000000     0          
H178     H      0.398380000000     0.010660000000     0.199660000000     0          
C179     C      0.625100000000     0.140600000000     0.478900000000     0          
C180     C      0.576900000000     0.108400000000     0.405900000000     0          
C181     C      0.590600000000     0.122000000000     0.313000000000     0          
H182     H      0.631270000000     0.148940000000     0.295620000000     0          
C183     C      0.542500000000     0.094400000000     0.247500000000     0          
C184     C      0.480400000000     0.054100000000     0.276900000000     0          
C185     C      0.466000000000     0.040100000000     0.367800000000     0          
H186     H      0.425470000000     0.013120000000     0.385400000000     0          
C187     C      0.514700000000     0.068000000000     0.431100000000     0          
H188     H      0.506170000000     0.059800000000     0.493070000000     0          
C189     C      0.538700000000     0.098300000000     0.148900000000     0          
C190     C      0.472900000000     0.061900000000     0.122400000000     0          
C191     C      0.449300000000     0.058400000000     0.029400000000     0          
H192     H      0.403990000000     0.037240000000     0.012390000000     0          
C193     C      0.496100000000     0.087600000000     0.965600000000     0          
H194     H      0.482830000000     0.085070000000     0.903810000000     0          
C195     C      0.564000000000     0.121600000000     0.990900000000     0          
C196     C      0.584300000000     0.127400000000     0.082800000000     0          
H197     H      0.628320000000     0.150550000000     0.099570000000     0          
C198     C      0.617200000000     0.149700000000     0.917700000000     0          
O199     O      0.395600000000     0.142400000000     0.691500000000     0          
C200     C      0.464600000000     0.138500000000     0.678200000000     0          
H201     H      0.474640000000     0.101630000000     0.643290000000     0          
Zr202    Zr     0.148950000000     0.836310000000     0.301630000000     0          
O203     O      0.114700000000     0.877500000000     0.439100000000     0          
O204     O      0.173500000000     0.816400000000     0.547100000000     0          
O205     O      0.102100000000     0.868500000000     0.164500000000     0          
O206     O      0.169200000000     0.814400000000     0.056300000000     0          
O207     O      0.184800000000     0.941600000000     0.300700000000     0          
O208     O      0.022500000000     0.835200000000     0.306300000000     0          
N209     N      0.938800000000     0.964900000000     0.800500000000     0          
H210     H      0.898380000000     0.989340000000     0.800340000000     0          
C211     C      0.125100000000     0.859400000000     0.521100000000     0          
C212     C      0.076900000000     0.891600000000     0.594100000000     0          
C213     C      0.090600000000     0.878000000000     0.687000000000     0          
H214     H      0.131270000000     0.851060000000     0.704380000000     0          
C215     C      0.042500000000     0.905600000000     0.752500000000     0          
C216     C      0.980400000000     0.945900000000     0.723100000000     0          
C217     C      0.966000000000     0.959900000000     0.632200000000     0          
H218     H      0.925470000000     0.986880000000     0.614600000000     0          
C219     C      0.014700000000     0.932000000000     0.568900000000     0          
H220     H      0.006170000000     0.940200000000     0.506930000000     0          
C221     C      0.038700000000     0.901700000000     0.851100000000     0          
C222     C      0.972900000000     0.938100000000     0.877600000000     0          
C223     C      0.949300000000     0.941600000000     0.970600000000     0          
H224     H      0.903990000000     0.962760000000     0.987610000000     0          
C225     C      0.996100000000     0.912400000000     0.034400000000     0          
H226     H      0.982830000000     0.914930000000     0.096190000000     0          
C227     C      0.064000000000     0.878400000000     0.009100000000     0          
C228     C      0.084300000000     0.872600000000     0.917200000000     0          
H229     H      0.128320000000     0.849450000000     0.900430000000     0          
C230     C      0.117200000000     0.850300000000     0.082300000000     0          
O231     O      0.895600000000     0.857600000000     0.308500000000     0          
C232     C      0.964600000000     0.861500000000     0.321800000000     0          
H233     H      0.974640000000     0.898370000000     0.356710000000     0          
Zr234    Zr     0.351050000000     0.663690000000     0.301630000000     0          
O235     O      0.385300000000     0.622500000000     0.439100000000     0          
O236     O      0.326500000000     0.683600000000     0.547100000000     0          
O237     O      0.397900000000     0.631500000000     0.164500000000     0          
O238     O      0.330800000000     0.685600000000     0.056300000000     0          
O239     O      0.315200000000     0.558400000000     0.300700000000     0          
O240     O      0.477500000000     0.664800000000     0.306300000000     0          
N241     N      0.561200000000     0.535100000000     0.800500000000     0          
H242     H      0.601620000000     0.510660000000     0.800340000000     0          
C243     C      0.374900000000     0.640600000000     0.521100000000     0          
C244     C      0.423100000000     0.608400000000     0.594100000000     0          
C245     C      0.409400000000     0.622000000000     0.687000000000     0          
H246     H      0.368730000000     0.648940000000     0.704380000000     0          
C247     C      0.457500000000     0.594400000000     0.752500000000     0          
C248     C      0.519600000000     0.554100000000     0.723100000000     0          
C249     C      0.534000000000     0.540100000000     0.632200000000     0          
H250     H      0.574530000000     0.513120000000     0.614600000000     0          
C251     C      0.485300000000     0.568000000000     0.568900000000     0          
H252     H      0.493830000000     0.559800000000     0.506930000000     0          
C253     C      0.461300000000     0.598300000000     0.851100000000     0          
C254     C      0.527100000000     0.561900000000     0.877600000000     0          
C255     C      0.550700000000     0.558400000000     0.970600000000     0          
H256     H      0.596010000000     0.537240000000     0.987610000000     0          
C257     C      0.503900000000     0.587600000000     0.034400000000     0          
H258     H      0.517170000000     0.585070000000     0.096190000000     0          
C259     C      0.436000000000     0.621600000000     0.009100000000     0          
C260     C      0.415700000000     0.627400000000     0.917200000000     0          
H261     H      0.371680000000     0.650550000000     0.900430000000     0          
C262     C      0.382800000000     0.649700000000     0.082300000000     0          
O263     O      0.604400000000     0.642400000000     0.308500000000     0          
C264     C      0.535400000000     0.638500000000     0.321800000000     0          
H265     H      0.525360000000     0.601630000000     0.356710000000     0          
H266     H      0.224420000000     0.442050000000     0.357220000000     0          
H267     H      0.223210000000     0.440510000000     0.249650000000     0          
H268     H      0.302370000000     0.441270000000     0.302190000000     0          
Zr269    Zr     0.250000000000     0.750000000000     0.472320000000     0          
Zr270    Zr     0.250000000000     0.750000000000     0.132440000000     0          
Zr271    Zr     0.750000000000     0.250000000000     0.527680000000     0          
Zr272    Zr     0.750000000000     0.250000000000     0.867560000000     0          
O273     O      0.250000000000     0.654100000000     0.206300000000     0          
O274     O      0.250000000000     0.679500000000     0.372800000000     0          
C275     C      0.250000000000     0.530300000000     0.300500000000     0          
C276     C      0.250000000000     0.456800000000     0.302600000000     0          
O277     O      0.250000000000     0.845900000000     0.206300000000     0          
O278     O      0.250000000000     0.820500000000     0.372800000000     0          
C279     C      0.250000000000     0.969700000000     0.300500000000     0          
C280     C      0.250000000000     0.043200000000     0.302600000000     0          
O281     O      0.750000000000     0.154100000000     0.793700000000     0          
O282     O      0.750000000000     0.179500000000     0.627200000000     0          
C283     C      0.750000000000     0.030300000000     0.699500000000     0          
C284     C      0.750000000000     0.956800000000     0.697400000000     0          
O285     O      0.750000000000     0.345900000000     0.793700000000     0          
O286     O      0.750000000000     0.320500000000     0.627200000000     0          
C287     C      0.750000000000     0.469700000000     0.699500000000     0          
C288     C      0.750000000000     0.543200000000     0.697400000000     0          
O289     O      0.161200000000     0.750000000000     0.228700000000     0          
O290     O      0.130200000000     0.750000000000     0.393800000000     0          
O291     O      0.338800000000     0.750000000000     0.228700000000     0          
O292     O      0.369800000000     0.750000000000     0.393800000000     0          
O293     O      0.838800000000     0.250000000000     0.771300000000     0          
O294     O      0.869800000000     0.250000000000     0.606200000000     0          
O295     O      0.661200000000     0.250000000000     0.771300000000     0          
O296     O      0.630200000000     0.250000000000     0.606200000000     0          


