data_GERXIN

_audit_creation_method RASPA-1.0
_audit_creation_date 2020-11-2
_audit_author_name 'Rocio Bueno-Perez'

_cell_length_a    24.0528
_cell_length_b    24.0528
_cell_length_c    15.706
_cell_angle_alpha 90
_cell_angle_beta  90
_cell_angle_gamma 90
_cell_volume      9086.51

_symmetry_cell_setting          tetragonal
_symmetry_space_group_name_Hall 'P 1'
_symmetry_space_group_name_H-M  'P 1'
_symmetry_Int_Tables_number     1

_symmetry_equiv_pos_as_xyz 'x,y,z'

loop_
_atom_site_label
_atom_site_type_symbol
_atom_site_fract_x
_atom_site_fract_y
_atom_site_fract_z
_atom_site_charge
O3       O      0.054990000000     0.350370000000     0.416600000000     0          
O4       O      0.103060000000     0.416470000000     0.343500000000     0          
C1       C      0.093300000000     0.366000000000     0.365900000000     0          
C2       C      0.129400000000     0.323100000000     0.328100000000     0          
C3       C      0.128200000000     0.269400000000     0.362900000000     0          
H1       H      0.103540000000     0.260880000000     0.408320000000     0          
C4       C      0.163100000000     0.229000000000     0.330900000000     0          
C5       C      0.201300000000     0.242100000000     0.267200000000     0          
C6       C      0.203300000000     0.296000000000     0.234700000000     0          
H2       H      0.229390000000     0.305530000000     0.191640000000     0          
C7       C      0.166400000000     0.336000000000     0.266400000000     0          
H3       H      0.167340000000     0.372680000000     0.244200000000     0          
C8       C      0.161000000000     0.169700000000     0.367400000000     0          
H4       H      0.122500000000     0.160230000000     0.382000000000     0          
H5       H      0.184120000000     0.167690000000     0.418710000000     0          
H6       H      0.174970000000     0.143370000000     0.324910000000     0          
Zr1      Zr     0.073300000000     0.500000000000     0.387980000000     0          
Zr2      Zr     0.000000000000     0.398310000000     0.500000000000     0          
O1       O      0.000000000000     0.450000000000     0.389800000000     0          
O2       O      0.073100000000     0.450500000000     0.500000000000     0          
O3       O      0.649630000000     0.054990000000     0.916600000000     0          
O4       O      0.583530000000     0.103060000000     0.843500000000     0          
C1       C      0.634000000000     0.093300000000     0.865900000000     0          
C2       C      0.676900000000     0.129400000000     0.828100000000     0          
C3       C      0.730600000000     0.128200000000     0.862900000000     0          
H1       H      0.739120000000     0.103540000000     0.908320000000     0          
C4       C      0.771000000000     0.163100000000     0.830900000000     0          
C5       C      0.757900000000     0.201300000000     0.767200000000     0          
C6       C      0.704000000000     0.203300000000     0.734700000000     0          
H2       H      0.694470000000     0.229390000000     0.691640000000     0          
C7       C      0.664000000000     0.166400000000     0.766400000000     0          
H3       H      0.627320000000     0.167340000000     0.744200000000     0          
C8       C      0.830300000000     0.161000000000     0.867400000000     0          
H4       H      0.839770000000     0.122500000000     0.882000000000     0          
H5       H      0.832310000000     0.184120000000     0.918710000000     0          
H6       H      0.856630000000     0.174970000000     0.824910000000     0          
Zr1      Zr     0.500000000000     0.073300000000     0.887980000000     0          
Zr2      Zr     0.601690000000     0.000000000000     0.000000000000     0          
O1       O      0.550000000000     0.000000000000     0.889800000000     0          
O2       O      0.549500000000     0.073100000000     0.000000000000     0          
O3       O      0.945010000000     0.649630000000     0.416600000000     0          
O4       O      0.896940000000     0.583530000000     0.343500000000     0          
C1       C      0.906700000000     0.634000000000     0.365900000000     0          
C2       C      0.870600000000     0.676900000000     0.328100000000     0          
C3       C      0.871800000000     0.730600000000     0.362900000000     0          
H1       H      0.896460000000     0.739120000000     0.408320000000     0          
C4       C      0.836900000000     0.771000000000     0.330900000000     0          
C5       C      0.798700000000     0.757900000000     0.267200000000     0          
C6       C      0.796700000000     0.704000000000     0.234700000000     0          
H2       H      0.770610000000     0.694470000000     0.191640000000     0          
C7       C      0.833600000000     0.664000000000     0.266400000000     0          
H3       H      0.832660000000     0.627320000000     0.244200000000     0          
C8       C      0.839000000000     0.830300000000     0.367400000000     0          
H4       H      0.877500000000     0.839770000000     0.382000000000     0          
H5       H      0.815880000000     0.832310000000     0.418710000000     0          
H6       H      0.825030000000     0.856630000000     0.324910000000     0          
Zr1      Zr     0.926700000000     0.500000000000     0.387980000000     0          
Zr2      Zr     0.000000000000     0.601690000000     0.500000000000     0          
O1       O      0.000000000000     0.550000000000     0.389800000000     0          
O2       O      0.926900000000     0.549500000000     0.500000000000     0          
O3       O      0.350370000000     0.945010000000     0.916600000000     0          
O4       O      0.416470000000     0.896940000000     0.843500000000     0          
C1       C      0.366000000000     0.906700000000     0.865900000000     0          
C2       C      0.323100000000     0.870600000000     0.828100000000     0          
C3       C      0.269400000000     0.871800000000     0.862900000000     0          
H1       H      0.260880000000     0.896460000000     0.908320000000     0          
C4       C      0.229000000000     0.836900000000     0.830900000000     0          
C5       C      0.242100000000     0.798700000000     0.767200000000     0          
C6       C      0.296000000000     0.796700000000     0.734700000000     0          
H2       H      0.305530000000     0.770610000000     0.691640000000     0          
C7       C      0.336000000000     0.833600000000     0.766400000000     0          
H3       H      0.372680000000     0.832660000000     0.744200000000     0          
C8       C      0.169700000000     0.839000000000     0.867400000000     0          
H4       H      0.160230000000     0.877500000000     0.882000000000     0          
H5       H      0.167690000000     0.815880000000     0.918710000000     0          
H6       H      0.143370000000     0.825030000000     0.824910000000     0          
Zr1      Zr     0.500000000000     0.926700000000     0.887980000000     0          
Zr2      Zr     0.398310000000     0.000000000000     0.000000000000     0          
O1       O      0.450000000000     0.000000000000     0.889800000000     0          
O2       O      0.450500000000     0.926900000000     0.000000000000     0          
O3       O      0.054990000000     0.649630000000     0.583400000000     0          
O4       O      0.103060000000     0.583530000000     0.656500000000     0          
C1       C      0.093300000000     0.634000000000     0.634100000000     0          
C2       C      0.129400000000     0.676900000000     0.671900000000     0          
C3       C      0.128200000000     0.730600000000     0.637100000000     0          
H1       H      0.103540000000     0.739120000000     0.591680000000     0          
C4       C      0.163100000000     0.771000000000     0.669100000000     0          
C5       C      0.201300000000     0.757900000000     0.732800000000     0          
C6       C      0.203300000000     0.704000000000     0.765300000000     0          
H2       H      0.229390000000     0.694470000000     0.808360000000     0          
C7       C      0.166400000000     0.664000000000     0.733600000000     0          
H3       H      0.167340000000     0.627320000000     0.755800000000     0          
C8       C      0.161000000000     0.830300000000     0.632600000000     0          
H4       H      0.122500000000     0.839770000000     0.618000000000     0          
H5       H      0.184120000000     0.832310000000     0.581290000000     0          
H6       H      0.174970000000     0.856630000000     0.675090000000     0          
Zr1      Zr     0.073300000000     0.500000000000     0.612020000000     0          
O1       O      0.000000000000     0.550000000000     0.610200000000     0          
O2       O      0.073100000000     0.549500000000     0.500000000000     0          
O3       O      0.350370000000     0.054990000000     0.083400000000     0          
O4       O      0.416470000000     0.103060000000     0.156500000000     0          
C1       C      0.366000000000     0.093300000000     0.134100000000     0          
C2       C      0.323100000000     0.129400000000     0.171900000000     0          
C3       C      0.269400000000     0.128200000000     0.137100000000     0          
H1       H      0.260880000000     0.103540000000     0.091680000000     0          
C4       C      0.229000000000     0.163100000000     0.169100000000     0          
C5       C      0.242100000000     0.201300000000     0.232800000000     0          
C6       C      0.296000000000     0.203300000000     0.265300000000     0          
H2       H      0.305530000000     0.229390000000     0.308360000000     0          
C7       C      0.336000000000     0.166400000000     0.233600000000     0          
H3       H      0.372680000000     0.167340000000     0.255800000000     0          
C8       C      0.169700000000     0.161000000000     0.132600000000     0          
H4       H      0.160230000000     0.122500000000     0.118000000000     0          
H5       H      0.167690000000     0.184120000000     0.081290000000     0          
H6       H      0.143370000000     0.174970000000     0.175090000000     0          
Zr1      Zr     0.500000000000     0.073300000000     0.112020000000     0          
O1       O      0.450000000000     0.000000000000     0.110200000000     0          
O2       O      0.450500000000     0.073100000000     0.000000000000     0          
O3       O      0.945010000000     0.350370000000     0.583400000000     0          
O4       O      0.896940000000     0.416470000000     0.656500000000     0          
C1       C      0.906700000000     0.366000000000     0.634100000000     0          
C2       C      0.870600000000     0.323100000000     0.671900000000     0          
C3       C      0.871800000000     0.269400000000     0.637100000000     0          
H1       H      0.896460000000     0.260880000000     0.591680000000     0          
C4       C      0.836900000000     0.229000000000     0.669100000000     0          
C5       C      0.798700000000     0.242100000000     0.732800000000     0          
C6       C      0.796700000000     0.296000000000     0.765300000000     0          
H2       H      0.770610000000     0.305530000000     0.808360000000     0          
C7       C      0.833600000000     0.336000000000     0.733600000000     0          
H3       H      0.832660000000     0.372680000000     0.755800000000     0          
C8       C      0.839000000000     0.169700000000     0.632600000000     0          
H4       H      0.877500000000     0.160230000000     0.618000000000     0          
H5       H      0.815880000000     0.167690000000     0.581290000000     0          
H6       H      0.825030000000     0.143370000000     0.675090000000     0          
Zr1      Zr     0.926700000000     0.500000000000     0.612020000000     0          
O1       O      0.000000000000     0.450000000000     0.610200000000     0          
O2       O      0.926900000000     0.450500000000     0.500000000000     0          
O3       O      0.649630000000     0.945010000000     0.083400000000     0          
O4       O      0.583530000000     0.896940000000     0.156500000000     0          
C1       C      0.634000000000     0.906700000000     0.134100000000     0          
C2       C      0.676900000000     0.870600000000     0.171900000000     0          
C3       C      0.730600000000     0.871800000000     0.137100000000     0          
H1       H      0.739120000000     0.896460000000     0.091680000000     0          
C4       C      0.771000000000     0.836900000000     0.169100000000     0          
C5       C      0.757900000000     0.798700000000     0.232800000000     0          
C6       C      0.704000000000     0.796700000000     0.265300000000     0          
H2       H      0.694470000000     0.770610000000     0.308360000000     0          
C7       C      0.664000000000     0.833600000000     0.233600000000     0          
H3       H      0.627320000000     0.832660000000     0.255800000000     0          
C8       C      0.830300000000     0.839000000000     0.132600000000     0          
H4       H      0.839770000000     0.877500000000     0.118000000000     0          
H5       H      0.832310000000     0.815880000000     0.081290000000     0          
H6       H      0.856630000000     0.825030000000     0.175090000000     0          
Zr1      Zr     0.500000000000     0.926700000000     0.112020000000     0          
O1       O      0.550000000000     0.000000000000     0.110200000000     0          
O2       O      0.549500000000     0.926900000000     0.000000000000     0          
O3       O      0.945010000000     0.649630000000     0.583400000000     0          
O4       O      0.896940000000     0.583530000000     0.656500000000     0          
C1       C      0.906700000000     0.634000000000     0.634100000000     0          
C2       C      0.870600000000     0.676900000000     0.671900000000     0          
C3       C      0.871800000000     0.730600000000     0.637100000000     0          
H1       H      0.896460000000     0.739120000000     0.591680000000     0          
C4       C      0.836900000000     0.771000000000     0.669100000000     0          
C5       C      0.798700000000     0.757900000000     0.732800000000     0          
C6       C      0.796700000000     0.704000000000     0.765300000000     0          
H2       H      0.770610000000     0.694470000000     0.808360000000     0          
C7       C      0.833600000000     0.664000000000     0.733600000000     0          
H3       H      0.832660000000     0.627320000000     0.755800000000     0          
C8       C      0.839000000000     0.830300000000     0.632600000000     0          
H4       H      0.877500000000     0.839770000000     0.618000000000     0          
H5       H      0.815880000000     0.832310000000     0.581290000000     0          
H6       H      0.825030000000     0.856630000000     0.675090000000     0          
O3       O      0.350370000000     0.945010000000     0.083400000000     0          
O4       O      0.416470000000     0.896940000000     0.156500000000     0          
C1       C      0.366000000000     0.906700000000     0.134100000000     0          
C2       C      0.323100000000     0.870600000000     0.171900000000     0          
C3       C      0.269400000000     0.871800000000     0.137100000000     0          
H1       H      0.260880000000     0.896460000000     0.091680000000     0          
C4       C      0.229000000000     0.836900000000     0.169100000000     0          
C5       C      0.242100000000     0.798700000000     0.232800000000     0          
C6       C      0.296000000000     0.796700000000     0.265300000000     0          
H2       H      0.305530000000     0.770610000000     0.308360000000     0          
C7       C      0.336000000000     0.833600000000     0.233600000000     0          
H3       H      0.372680000000     0.832660000000     0.255800000000     0          
C8       C      0.169700000000     0.839000000000     0.132600000000     0          
H4       H      0.160230000000     0.877500000000     0.118000000000     0          
H5       H      0.167690000000     0.815880000000     0.081290000000     0          
H6       H      0.143370000000     0.825030000000     0.175090000000     0          
O3       O      0.054990000000     0.350370000000     0.583400000000     0          
O4       O      0.103060000000     0.416470000000     0.656500000000     0          
C1       C      0.093300000000     0.366000000000     0.634100000000     0          
C2       C      0.129400000000     0.323100000000     0.671900000000     0          
C3       C      0.128200000000     0.269400000000     0.637100000000     0          
H1       H      0.103540000000     0.260880000000     0.591680000000     0          
C4       C      0.163100000000     0.229000000000     0.669100000000     0          
C5       C      0.201300000000     0.242100000000     0.732800000000     0          
C6       C      0.203300000000     0.296000000000     0.765300000000     0          
H2       H      0.229390000000     0.305530000000     0.808360000000     0          
C7       C      0.166400000000     0.336000000000     0.733600000000     0          
H3       H      0.167340000000     0.372680000000     0.755800000000     0          
C8       C      0.161000000000     0.169700000000     0.632600000000     0          
H4       H      0.122500000000     0.160230000000     0.618000000000     0          
H5       H      0.184120000000     0.167690000000     0.581290000000     0          
H6       H      0.174970000000     0.143370000000     0.675090000000     0          
O3       O      0.649630000000     0.054990000000     0.083400000000     0          
O4       O      0.583530000000     0.103060000000     0.156500000000     0          
C1       C      0.634000000000     0.093300000000     0.134100000000     0          
C2       C      0.676900000000     0.129400000000     0.171900000000     0          
C3       C      0.730600000000     0.128200000000     0.137100000000     0          
H1       H      0.739120000000     0.103540000000     0.091680000000     0          
C4       C      0.771000000000     0.163100000000     0.169100000000     0          
C5       C      0.757900000000     0.201300000000     0.232800000000     0          
C6       C      0.704000000000     0.203300000000     0.265300000000     0          
H2       H      0.694470000000     0.229390000000     0.308360000000     0          
C7       C      0.664000000000     0.166400000000     0.233600000000     0          
H3       H      0.627320000000     0.167340000000     0.255800000000     0          
C8       C      0.830300000000     0.161000000000     0.132600000000     0          
H4       H      0.839770000000     0.122500000000     0.118000000000     0          
H5       H      0.832310000000     0.184120000000     0.081290000000     0          
H6       H      0.856630000000     0.174970000000     0.175090000000     0          
O3       O      0.945010000000     0.350370000000     0.416600000000     0          
O4       O      0.896940000000     0.416470000000     0.343500000000     0          
C1       C      0.906700000000     0.366000000000     0.365900000000     0          
C2       C      0.870600000000     0.323100000000     0.328100000000     0          
C3       C      0.871800000000     0.269400000000     0.362900000000     0          
H1       H      0.896460000000     0.260880000000     0.408320000000     0          
C4       C      0.836900000000     0.229000000000     0.330900000000     0          
C5       C      0.798700000000     0.242100000000     0.267200000000     0          
C6       C      0.796700000000     0.296000000000     0.234700000000     0          
H2       H      0.770610000000     0.305530000000     0.191640000000     0          
C7       C      0.833600000000     0.336000000000     0.266400000000     0          
H3       H      0.832660000000     0.372680000000     0.244200000000     0          
C8       C      0.839000000000     0.169700000000     0.367400000000     0          
H4       H      0.877500000000     0.160230000000     0.382000000000     0          
H5       H      0.815880000000     0.167690000000     0.418710000000     0          
H6       H      0.825030000000     0.143370000000     0.324910000000     0          
O3       O      0.649630000000     0.945010000000     0.916600000000     0          
O4       O      0.583530000000     0.896940000000     0.843500000000     0          
C1       C      0.634000000000     0.906700000000     0.865900000000     0          
C2       C      0.676900000000     0.870600000000     0.828100000000     0          
C3       C      0.730600000000     0.871800000000     0.862900000000     0          
H1       H      0.739120000000     0.896460000000     0.908320000000     0          
C4       C      0.771000000000     0.836900000000     0.830900000000     0          
C5       C      0.757900000000     0.798700000000     0.767200000000     0          
C6       C      0.704000000000     0.796700000000     0.734700000000     0          
H2       H      0.694470000000     0.770610000000     0.691640000000     0          
C7       C      0.664000000000     0.833600000000     0.766400000000     0          
H3       H      0.627320000000     0.832660000000     0.744200000000     0          
C8       C      0.830300000000     0.839000000000     0.867400000000     0          
H4       H      0.839770000000     0.877500000000     0.882000000000     0          
H5       H      0.832310000000     0.815880000000     0.918710000000     0          
H6       H      0.856630000000     0.825030000000     0.824910000000     0          
O3       O      0.054990000000     0.649630000000     0.416600000000     0          
O4       O      0.103060000000     0.583530000000     0.343500000000     0          
C1       C      0.093300000000     0.634000000000     0.365900000000     0          
C2       C      0.129400000000     0.676900000000     0.328100000000     0          
C3       C      0.128200000000     0.730600000000     0.362900000000     0          
H1       H      0.103540000000     0.739120000000     0.408320000000     0          
C4       C      0.163100000000     0.771000000000     0.330900000000     0          
C5       C      0.201300000000     0.757900000000     0.267200000000     0          
C6       C      0.203300000000     0.704000000000     0.234700000000     0          
H2       H      0.229390000000     0.694470000000     0.191640000000     0          
C7       C      0.166400000000     0.664000000000     0.266400000000     0          
H3       H      0.167340000000     0.627320000000     0.244200000000     0          
C8       C      0.161000000000     0.830300000000     0.367400000000     0          
H4       H      0.122500000000     0.839770000000     0.382000000000     0          
H5       H      0.184120000000     0.832310000000     0.418710000000     0          
H6       H      0.174970000000     0.856630000000     0.324910000000     0          
O3       O      0.350370000000     0.054990000000     0.916600000000     0          
O4       O      0.416470000000     0.103060000000     0.843500000000     0          
C1       C      0.366000000000     0.093300000000     0.865900000000     0          
C2       C      0.323100000000     0.129400000000     0.828100000000     0          
C3       C      0.269400000000     0.128200000000     0.862900000000     0          
H1       H      0.260880000000     0.103540000000     0.908320000000     0          
C4       C      0.229000000000     0.163100000000     0.830900000000     0          
C5       C      0.242100000000     0.201300000000     0.767200000000     0          
C6       C      0.296000000000     0.203300000000     0.734700000000     0          
H2       H      0.305530000000     0.229390000000     0.691640000000     0          
C7       C      0.336000000000     0.166400000000     0.766400000000     0          
H3       H      0.372680000000     0.167340000000     0.744200000000     0          
C8       C      0.169700000000     0.161000000000     0.867400000000     0          
H4       H      0.160230000000     0.122500000000     0.882000000000     0          
H5       H      0.167690000000     0.184120000000     0.918710000000     0          
H6       H      0.143370000000     0.174970000000     0.824910000000     0          


