data_GIGGEL

_audit_creation_method RASPA-1.0
_audit_creation_date 2020-11-2
_audit_author_name 'Rocio Bueno-Perez'

_cell_length_a    18.8806
_cell_length_b    18.8806
_cell_length_c    33.2413
_cell_angle_alpha 90
_cell_angle_beta  90
_cell_angle_gamma 90
_cell_volume      11849.8

_symmetry_cell_setting          triclinic
_symmetry_space_group_name_Hall 'P 1'
_symmetry_space_group_name_H-M  'P 1'
_symmetry_Int_Tables_number     1

_symmetry_equiv_pos_as_xyz 'x,y,z'

loop_
_atom_site_label
_atom_site_type_symbol
_atom_site_fract_x
_atom_site_fract_y
_atom_site_fract_z
_atom_site_charge
O1       O      0.408300000000     0.466100000000     0.392840000000     0          
O2       O      0.537400000000     0.585800000000     0.464070000000     0          
O3       O      0.326400000000     0.434200000000     0.439720000000     0          
C4       C      0.346500000000     0.442900000000     0.403000000000     0          
C5       C      0.091400000000     0.473300000000     0.276900000000     0          
C6       C      0.136600000000     0.421300000000     0.278300000000     0          
C7       C      0.098700000000     0.532000000000     0.307900000000     0          
H8       H      0.094300000000     0.577200000000     0.294900000000     0          
H9       H      0.144300000000     0.528800000000     0.320600000000     0          
H10      H      0.062300000000     0.527100000000     0.327900000000     0          
C11      C      0.308900000000     0.451630000000     0.330950000000     0          
H12      H      0.354700000000     0.465200000000     0.324100000000     0          
C13      C      0.257400000000     0.445750000000     0.301260000000     0          
H14      H      0.268700000000     0.455400000000     0.274600000000     0          
C15      C      0.188900000000     0.425520000000     0.311430000000     0          
C16      C      0.171900000000     0.411160000000     0.351290000000     0          
H17      H      0.126100000000     0.397600000000     0.358100000000     0          
C18      C      0.223400000000     0.417040000000     0.380990000000     0          
H19      H      0.212100000000     0.407400000000     0.407700000000     0          
C20      C      0.291900000000     0.437270000000     0.370810000000     0          
H21      H      0.224000000000     0.319100000000     0.271000000000     0          
H22      H      0.169000000000     0.264100000000     0.254500000000     0          
H23      H      0.214300000000     0.309500000000     0.224500000000     0          
O24      O      0.591700000000     0.533900000000     0.392840000000     0          
O25      O      0.462600000000     0.414200000000     0.464070000000     0          
O26      O      0.673600000000     0.565800000000     0.439720000000     0          
C27      C      0.653500000000     0.557100000000     0.403000000000     0          
C28      C      0.908600000000     0.526700000000     0.276900000000     0          
C29      C      0.863400000000     0.578700000000     0.278300000000     0          
C30      C      0.901300000000     0.468000000000     0.307900000000     0          
H31      H      0.905700000000     0.422800000000     0.294900000000     0          
H32      H      0.855700000000     0.471200000000     0.320600000000     0          
H33      H      0.937700000000     0.472900000000     0.327900000000     0          
C34      C      0.691100000000     0.548370000000     0.330950000000     0          
H35      H      0.645300000000     0.534800000000     0.324100000000     0          
C36      C      0.742600000000     0.554250000000     0.301260000000     0          
H37      H      0.731300000000     0.544600000000     0.274600000000     0          
C38      C      0.811100000000     0.574480000000     0.311430000000     0          
C39      C      0.828100000000     0.588840000000     0.351290000000     0          
H40      H      0.873900000000     0.602400000000     0.358100000000     0          
C41      C      0.776600000000     0.582960000000     0.380990000000     0          
H42      H      0.787900000000     0.592600000000     0.407700000000     0          
C43      C      0.708100000000     0.562730000000     0.370810000000     0          
H44      H      0.776000000000     0.680900000000     0.271000000000     0          
H45      H      0.831000000000     0.735900000000     0.254500000000     0          
H46      H      0.785700000000     0.690500000000     0.224500000000     0          
O47      O      0.533900000000     0.408300000000     0.392840000000     0          
O48      O      0.414200000000     0.537400000000     0.464070000000     0          
O49      O      0.565800000000     0.326400000000     0.439720000000     0          
C50      C      0.557100000000     0.346500000000     0.403000000000     0          
C51      C      0.526700000000     0.091400000000     0.276900000000     0          
C52      C      0.578700000000     0.136600000000     0.278300000000     0          
C53      C      0.468000000000     0.098700000000     0.307900000000     0          
H54      H      0.422800000000     0.094300000000     0.294900000000     0          
H55      H      0.471200000000     0.144300000000     0.320600000000     0          
H56      H      0.472900000000     0.062300000000     0.327900000000     0          
C57      C      0.548370000000     0.308900000000     0.330950000000     0          
H58      H      0.534800000000     0.354700000000     0.324100000000     0          
C59      C      0.554250000000     0.257400000000     0.301260000000     0          
H60      H      0.544600000000     0.268700000000     0.274600000000     0          
C61      C      0.574480000000     0.188900000000     0.311430000000     0          
C62      C      0.588840000000     0.171900000000     0.351290000000     0          
H63      H      0.602400000000     0.126100000000     0.358100000000     0          
C64      C      0.582960000000     0.223400000000     0.380990000000     0          
H65      H      0.592600000000     0.212100000000     0.407700000000     0          
C66      C      0.562730000000     0.291900000000     0.370810000000     0          
H67      H      0.680900000000     0.224000000000     0.271000000000     0          
H68      H      0.735900000000     0.169000000000     0.254500000000     0          
H69      H      0.690500000000     0.214300000000     0.224500000000     0          
O70      O      0.466100000000     0.591700000000     0.392840000000     0          
O71      O      0.585800000000     0.462600000000     0.464070000000     0          
O72      O      0.434200000000     0.673600000000     0.439720000000     0          
C73      C      0.442900000000     0.653500000000     0.403000000000     0          
C74      C      0.473300000000     0.908600000000     0.276900000000     0          
C75      C      0.421300000000     0.863400000000     0.278300000000     0          
C76      C      0.532000000000     0.901300000000     0.307900000000     0          
H77      H      0.577200000000     0.905700000000     0.294900000000     0          
H78      H      0.528800000000     0.855700000000     0.320600000000     0          
H79      H      0.527100000000     0.937700000000     0.327900000000     0          
C80      C      0.451630000000     0.691100000000     0.330950000000     0          
H81      H      0.465200000000     0.645300000000     0.324100000000     0          
C82      C      0.445750000000     0.742600000000     0.301260000000     0          
H83      H      0.455400000000     0.731300000000     0.274600000000     0          
C84      C      0.425520000000     0.811100000000     0.311430000000     0          
C85      C      0.411160000000     0.828100000000     0.351290000000     0          
H86      H      0.397600000000     0.873900000000     0.358100000000     0          
C87      C      0.417040000000     0.776600000000     0.380990000000     0          
H88      H      0.407400000000     0.787900000000     0.407700000000     0          
C89      C      0.437270000000     0.708100000000     0.370810000000     0          
H90      H      0.319100000000     0.776000000000     0.271000000000     0          
H91      H      0.264100000000     0.831000000000     0.254500000000     0          
H92      H      0.309500000000     0.785700000000     0.224500000000     0          
O93      O      0.091700000000     0.966100000000     0.107160000000     0          
O94      O      0.962600000000     0.085800000000     0.035930000000     0          
O95      O      0.173600000000     0.934200000000     0.060280000000     0          
C96      C      0.153500000000     0.942900000000     0.097000000000     0          
C97      C      0.408600000000     0.973300000000     0.223100000000     0          
C98      C      0.363400000000     0.921300000000     0.221700000000     0          
C99      C      0.401300000000     0.032000000000     0.192100000000     0          
H100     H      0.405700000000     0.077200000000     0.205100000000     0          
H101     H      0.355700000000     0.028800000000     0.179400000000     0          
H102     H      0.437700000000     0.027100000000     0.172100000000     0          
C103     C      0.191100000000     0.951630000000     0.169050000000     0          
H104     H      0.145300000000     0.965200000000     0.175900000000     0          
C105     C      0.242600000000     0.945750000000     0.198740000000     0          
H106     H      0.231300000000     0.955400000000     0.225400000000     0          
C107     C      0.311100000000     0.925520000000     0.188570000000     0          
C108     C      0.328100000000     0.911160000000     0.148710000000     0          
H109     H      0.373900000000     0.897600000000     0.141900000000     0          
C110     C      0.276600000000     0.917040000000     0.119010000000     0          
H111     H      0.287900000000     0.907400000000     0.092300000000     0          
C112     C      0.208100000000     0.937270000000     0.129190000000     0          
O113     O      0.908300000000     0.033900000000     0.107160000000     0          
O114     O      0.037400000000     0.914200000000     0.035930000000     0          
O115     O      0.826400000000     0.065800000000     0.060280000000     0          
C116     C      0.846500000000     0.057100000000     0.097000000000     0          
C117     C      0.591400000000     0.026700000000     0.223100000000     0          
C118     C      0.636600000000     0.078700000000     0.221700000000     0          
C119     C      0.598700000000     0.968000000000     0.192100000000     0          
H120     H      0.594300000000     0.922800000000     0.205100000000     0          
H121     H      0.644300000000     0.971200000000     0.179400000000     0          
H122     H      0.562300000000     0.972900000000     0.172100000000     0          
C123     C      0.808900000000     0.048370000000     0.169050000000     0          
H124     H      0.854700000000     0.034800000000     0.175900000000     0          
C125     C      0.757400000000     0.054250000000     0.198740000000     0          
H126     H      0.768700000000     0.044600000000     0.225400000000     0          
C127     C      0.688900000000     0.074480000000     0.188570000000     0          
C128     C      0.671900000000     0.088840000000     0.148710000000     0          
H129     H      0.626100000000     0.102400000000     0.141900000000     0          
C130     C      0.723400000000     0.082960000000     0.119010000000     0          
H131     H      0.712100000000     0.092600000000     0.092300000000     0          
C132     C      0.791900000000     0.062730000000     0.129190000000     0          
O133     O      0.966100000000     0.908300000000     0.107160000000     0          
O134     O      0.085800000000     0.037400000000     0.035930000000     0          
O135     O      0.934200000000     0.826400000000     0.060280000000     0          
C136     C      0.942900000000     0.846500000000     0.097000000000     0          
C137     C      0.973300000000     0.591400000000     0.223100000000     0          
C138     C      0.921300000000     0.636600000000     0.221700000000     0          
C139     C      0.032000000000     0.598700000000     0.192100000000     0          
H140     H      0.077200000000     0.594300000000     0.205100000000     0          
H141     H      0.028800000000     0.644300000000     0.179400000000     0          
H142     H      0.027100000000     0.562300000000     0.172100000000     0          
C143     C      0.951630000000     0.808900000000     0.169050000000     0          
H144     H      0.965200000000     0.854700000000     0.175900000000     0          
C145     C      0.945750000000     0.757400000000     0.198740000000     0          
H146     H      0.955400000000     0.768700000000     0.225400000000     0          
C147     C      0.925520000000     0.688900000000     0.188570000000     0          
C148     C      0.911160000000     0.671900000000     0.148710000000     0          
H149     H      0.897600000000     0.626100000000     0.141900000000     0          
C150     C      0.917040000000     0.723400000000     0.119010000000     0          
H151     H      0.907400000000     0.712100000000     0.092300000000     0          
C152     C      0.937270000000     0.791900000000     0.129190000000     0          
O153     O      0.033900000000     0.091700000000     0.107160000000     0          
O154     O      0.914200000000     0.962600000000     0.035930000000     0          
O155     O      0.065800000000     0.173600000000     0.060280000000     0          
C156     C      0.057100000000     0.153500000000     0.097000000000     0          
C157     C      0.026700000000     0.408600000000     0.223100000000     0          
C158     C      0.078700000000     0.363400000000     0.221700000000     0          
C159     C      0.968000000000     0.401300000000     0.192100000000     0          
H160     H      0.922800000000     0.405700000000     0.205100000000     0          
H161     H      0.971200000000     0.355700000000     0.179400000000     0          
H162     H      0.972900000000     0.437700000000     0.172100000000     0          
C163     C      0.048370000000     0.191100000000     0.169050000000     0          
H164     H      0.034800000000     0.145300000000     0.175900000000     0          
C165     C      0.054250000000     0.242600000000     0.198740000000     0          
H166     H      0.044600000000     0.231300000000     0.225400000000     0          
C167     C      0.074480000000     0.311100000000     0.188570000000     0          
C168     C      0.088840000000     0.328100000000     0.148710000000     0          
H169     H      0.102400000000     0.373900000000     0.141900000000     0          
C170     C      0.082960000000     0.276600000000     0.119010000000     0          
H171     H      0.092600000000     0.287900000000     0.092300000000     0          
C172     C      0.062730000000     0.208100000000     0.129190000000     0          
O173     O      0.591700000000     0.533900000000     0.607160000000     0          
O174     O      0.462600000000     0.414200000000     0.535930000000     0          
O175     O      0.673600000000     0.565800000000     0.560280000000     0          
C176     C      0.653500000000     0.557100000000     0.597000000000     0          
C177     C      0.908600000000     0.526700000000     0.723100000000     0          
C178     C      0.863400000000     0.578700000000     0.721700000000     0          
C179     C      0.901300000000     0.468000000000     0.692100000000     0          
H180     H      0.905700000000     0.422800000000     0.705100000000     0          
H181     H      0.855700000000     0.471200000000     0.679400000000     0          
H182     H      0.937700000000     0.472900000000     0.672100000000     0          
C183     C      0.691100000000     0.548370000000     0.669050000000     0          
H184     H      0.645300000000     0.534800000000     0.675900000000     0          
C185     C      0.742600000000     0.554250000000     0.698740000000     0          
H186     H      0.731300000000     0.544600000000     0.725400000000     0          
C187     C      0.811100000000     0.574480000000     0.688570000000     0          
C188     C      0.828100000000     0.588840000000     0.648710000000     0          
H189     H      0.873900000000     0.602400000000     0.641900000000     0          
C190     C      0.776600000000     0.582960000000     0.619010000000     0          
H191     H      0.787900000000     0.592600000000     0.592300000000     0          
C192     C      0.708100000000     0.562730000000     0.629190000000     0          
O193     O      0.408300000000     0.466100000000     0.607160000000     0          
O194     O      0.537400000000     0.585800000000     0.535930000000     0          
O195     O      0.326400000000     0.434200000000     0.560280000000     0          
C196     C      0.346500000000     0.442900000000     0.597000000000     0          
C197     C      0.091400000000     0.473300000000     0.723100000000     0          
C198     C      0.136600000000     0.421300000000     0.721700000000     0          
C199     C      0.098700000000     0.532000000000     0.692100000000     0          
H200     H      0.094300000000     0.577200000000     0.705100000000     0          
H201     H      0.144300000000     0.528800000000     0.679400000000     0          
H202     H      0.062300000000     0.527100000000     0.672100000000     0          
C203     C      0.308900000000     0.451630000000     0.669050000000     0          
H204     H      0.354700000000     0.465200000000     0.675900000000     0          
C205     C      0.257400000000     0.445750000000     0.698740000000     0          
H206     H      0.268700000000     0.455400000000     0.725400000000     0          
C207     C      0.188900000000     0.425520000000     0.688570000000     0          
C208     C      0.171900000000     0.411160000000     0.648710000000     0          
H209     H      0.126100000000     0.397600000000     0.641900000000     0          
C210     C      0.223400000000     0.417040000000     0.619010000000     0          
H211     H      0.212100000000     0.407400000000     0.592300000000     0          
C212     C      0.291900000000     0.437270000000     0.629190000000     0          
H213     H      0.224000000000     0.319100000000     0.729000000000     0          
H214     H      0.169000000000     0.264100000000     0.745500000000     0          
H215     H      0.214300000000     0.309500000000     0.775500000000     0          
O216     O      0.466100000000     0.591700000000     0.607160000000     0          
O217     O      0.585800000000     0.462600000000     0.535930000000     0          
O218     O      0.434200000000     0.673600000000     0.560280000000     0          
C219     C      0.442900000000     0.653500000000     0.597000000000     0          
C220     C      0.473300000000     0.908600000000     0.723100000000     0          
C221     C      0.421300000000     0.863400000000     0.721700000000     0          
C222     C      0.532000000000     0.901300000000     0.692100000000     0          
H223     H      0.577200000000     0.905700000000     0.705100000000     0          
H224     H      0.528800000000     0.855700000000     0.679400000000     0          
H225     H      0.527100000000     0.937700000000     0.672100000000     0          
C226     C      0.451630000000     0.691100000000     0.669050000000     0          
H227     H      0.465200000000     0.645300000000     0.675900000000     0          
C228     C      0.445750000000     0.742600000000     0.698740000000     0          
H229     H      0.455400000000     0.731300000000     0.725400000000     0          
C230     C      0.425520000000     0.811100000000     0.688570000000     0          
C231     C      0.411160000000     0.828100000000     0.648710000000     0          
H232     H      0.397600000000     0.873900000000     0.641900000000     0          
C233     C      0.417040000000     0.776600000000     0.619010000000     0          
H234     H      0.407400000000     0.787900000000     0.592300000000     0          
C235     C      0.437270000000     0.708100000000     0.629190000000     0          
O236     O      0.533900000000     0.408300000000     0.607160000000     0          
O237     O      0.414200000000     0.537400000000     0.535930000000     0          
O238     O      0.565800000000     0.326400000000     0.560280000000     0          
C239     C      0.557100000000     0.346500000000     0.597000000000     0          
C240     C      0.526700000000     0.091400000000     0.723100000000     0          
C241     C      0.578700000000     0.136600000000     0.721700000000     0          
C242     C      0.468000000000     0.098700000000     0.692100000000     0          
H243     H      0.422800000000     0.094300000000     0.705100000000     0          
H244     H      0.471200000000     0.144300000000     0.679400000000     0          
H245     H      0.472900000000     0.062300000000     0.672100000000     0          
C246     C      0.548370000000     0.308900000000     0.669050000000     0          
H247     H      0.534800000000     0.354700000000     0.675900000000     0          
C248     C      0.554250000000     0.257400000000     0.698740000000     0          
H249     H      0.544600000000     0.268700000000     0.725400000000     0          
C250     C      0.574480000000     0.188900000000     0.688570000000     0          
C251     C      0.588840000000     0.171900000000     0.648710000000     0          
H252     H      0.602400000000     0.126100000000     0.641900000000     0          
C253     C      0.582960000000     0.223400000000     0.619010000000     0          
H254     H      0.592600000000     0.212100000000     0.592300000000     0          
C255     C      0.562730000000     0.291900000000     0.629190000000     0          
O256     O      0.908300000000     0.033900000000     0.892840000000     0          
O257     O      0.037400000000     0.914200000000     0.964070000000     0          
O258     O      0.826400000000     0.065800000000     0.939720000000     0          
C259     C      0.846500000000     0.057100000000     0.903000000000     0          
C260     C      0.591400000000     0.026700000000     0.776900000000     0          
C261     C      0.636600000000     0.078700000000     0.778300000000     0          
C262     C      0.598700000000     0.968000000000     0.807900000000     0          
H263     H      0.594300000000     0.922800000000     0.794900000000     0          
H264     H      0.644300000000     0.971200000000     0.820600000000     0          
H265     H      0.562300000000     0.972900000000     0.827900000000     0          
C266     C      0.808900000000     0.048370000000     0.830950000000     0          
H267     H      0.854700000000     0.034800000000     0.824100000000     0          
C268     C      0.757400000000     0.054250000000     0.801260000000     0          
H269     H      0.768700000000     0.044600000000     0.774600000000     0          
C270     C      0.688900000000     0.074480000000     0.811430000000     0          
C271     C      0.671900000000     0.088840000000     0.851290000000     0          
H272     H      0.626100000000     0.102400000000     0.858100000000     0          
C273     C      0.723400000000     0.082960000000     0.880990000000     0          
H274     H      0.712100000000     0.092600000000     0.907700000000     0          
C275     C      0.791900000000     0.062730000000     0.870810000000     0          
H276     H      0.724000000000     0.180900000000     0.771000000000     0          
H277     H      0.669000000000     0.235900000000     0.754500000000     0          
H278     H      0.714300000000     0.190500000000     0.724500000000     0          
O279     O      0.091700000000     0.966100000000     0.892840000000     0          
O280     O      0.962600000000     0.085800000000     0.964070000000     0          
O281     O      0.173600000000     0.934200000000     0.939720000000     0          
C282     C      0.153500000000     0.942900000000     0.903000000000     0          
C283     C      0.408600000000     0.973300000000     0.776900000000     0          
C284     C      0.363400000000     0.921300000000     0.778300000000     0          
C285     C      0.401300000000     0.032000000000     0.807900000000     0          
H286     H      0.405700000000     0.077200000000     0.794900000000     0          
H287     H      0.355700000000     0.028800000000     0.820600000000     0          
H288     H      0.437700000000     0.027100000000     0.827900000000     0          
C289     C      0.191100000000     0.951630000000     0.830950000000     0          
H290     H      0.145300000000     0.965200000000     0.824100000000     0          
C291     C      0.242600000000     0.945750000000     0.801260000000     0          
H292     H      0.231300000000     0.955400000000     0.774600000000     0          
C293     C      0.311100000000     0.925520000000     0.811430000000     0          
C294     C      0.328100000000     0.911160000000     0.851290000000     0          
H295     H      0.373900000000     0.897600000000     0.858100000000     0          
C296     C      0.276600000000     0.917040000000     0.880990000000     0          
H297     H      0.287900000000     0.907400000000     0.907700000000     0          
C298     C      0.208100000000     0.937270000000     0.870810000000     0          
H299     H      0.276000000000     0.819100000000     0.771000000000     0          
H300     H      0.331000000000     0.764100000000     0.754500000000     0          
H301     H      0.285700000000     0.809500000000     0.724500000000     0          
O302     O      0.033900000000     0.091700000000     0.892840000000     0          
O303     O      0.914200000000     0.962600000000     0.964070000000     0          
O304     O      0.065800000000     0.173600000000     0.939720000000     0          
C305     C      0.057100000000     0.153500000000     0.903000000000     0          
C306     C      0.026700000000     0.408600000000     0.776900000000     0          
C307     C      0.078700000000     0.363400000000     0.778300000000     0          
C308     C      0.968000000000     0.401300000000     0.807900000000     0          
H309     H      0.922800000000     0.405700000000     0.794900000000     0          
H310     H      0.971200000000     0.355700000000     0.820600000000     0          
H311     H      0.972900000000     0.437700000000     0.827900000000     0          
C312     C      0.048370000000     0.191100000000     0.830950000000     0          
H313     H      0.034800000000     0.145300000000     0.824100000000     0          
C314     C      0.054250000000     0.242600000000     0.801260000000     0          
H315     H      0.044600000000     0.231300000000     0.774600000000     0          
C316     C      0.074480000000     0.311100000000     0.811430000000     0          
C317     C      0.088840000000     0.328100000000     0.851290000000     0          
H318     H      0.102400000000     0.373900000000     0.858100000000     0          
C319     C      0.082960000000     0.276600000000     0.880990000000     0          
H320     H      0.092600000000     0.287900000000     0.907700000000     0          
C321     C      0.062730000000     0.208100000000     0.870810000000     0          
O322     O      0.966100000000     0.908300000000     0.892840000000     0          
O323     O      0.085800000000     0.037400000000     0.964070000000     0          
O324     O      0.934200000000     0.826400000000     0.939720000000     0          
C325     C      0.942900000000     0.846500000000     0.903000000000     0          
C326     C      0.973300000000     0.591400000000     0.776900000000     0          
C327     C      0.921300000000     0.636600000000     0.778300000000     0          
C328     C      0.032000000000     0.598700000000     0.807900000000     0          
H329     H      0.077200000000     0.594300000000     0.794900000000     0          
H330     H      0.028800000000     0.644300000000     0.820600000000     0          
H331     H      0.027100000000     0.562300000000     0.827900000000     0          
C332     C      0.951630000000     0.808900000000     0.830950000000     0          
H333     H      0.965200000000     0.854700000000     0.824100000000     0          
C334     C      0.945750000000     0.757400000000     0.801260000000     0          
H335     H      0.955400000000     0.768700000000     0.774600000000     0          
C336     C      0.925520000000     0.688900000000     0.811430000000     0          
C337     C      0.911160000000     0.671900000000     0.851290000000     0          
H338     H      0.897600000000     0.626100000000     0.858100000000     0          
C339     C      0.917040000000     0.723400000000     0.880990000000     0          
H340     H      0.907400000000     0.712100000000     0.907700000000     0          
C341     C      0.937270000000     0.791900000000     0.870810000000     0          
H342     H      0.819100000000     0.724000000000     0.771000000000     0          
H343     H      0.764100000000     0.669000000000     0.754500000000     0          
H344     H      0.809500000000     0.714300000000     0.724500000000     0          
Zr345    Zr     0.500000000000     0.500000000000     0.426670000000     0          
Zr346    Zr     0.000000000000     0.000000000000     0.073330000000     0          
Zr347    Zr     0.500000000000     0.500000000000     0.573330000000     0          
Zr348    Zr     0.000000000000     0.000000000000     0.926670000000     0          
Zr349    Zr     0.623200000000     0.548260000000     0.500000000000     0          
Zr350    Zr     0.376800000000     0.451740000000     0.500000000000     0          
Zr351    Zr     0.451740000000     0.623200000000     0.500000000000     0          
Zr352    Zr     0.548260000000     0.376800000000     0.500000000000     0          
Zr353    Zr     0.876800000000     0.048260000000     0.000000000000     0          
Zr354    Zr     0.123200000000     0.951740000000     0.000000000000     0          
Zr355    Zr     0.048260000000     0.123200000000     0.000000000000     0          
Zr356    Zr     0.951740000000     0.876800000000     0.000000000000     0          
C357     C      0.028240000000     0.471760000000     0.250000000000     0          
C358     C      0.133700000000     0.366300000000     0.250000000000     0          
C359     C      0.190400000000     0.309600000000     0.250000000000     0          
C360     C      0.971760000000     0.528240000000     0.250000000000     0          
C361     C      0.866300000000     0.633700000000     0.250000000000     0          
C362     C      0.809600000000     0.690400000000     0.250000000000     0          
C363     C      0.528240000000     0.028240000000     0.250000000000     0          
C364     C      0.633700000000     0.133700000000     0.250000000000     0          
C365     C      0.690400000000     0.190400000000     0.250000000000     0          
C366     C      0.471760000000     0.971760000000     0.250000000000     0          
C367     C      0.366300000000     0.866300000000     0.250000000000     0          
C368     C      0.309600000000     0.809600000000     0.250000000000     0          
C369     C      0.971760000000     0.528240000000     0.750000000000     0          
C370     C      0.866300000000     0.633700000000     0.750000000000     0          
C371     C      0.809600000000     0.690400000000     0.750000000000     0          
C372     C      0.028240000000     0.471760000000     0.750000000000     0          
C373     C      0.133700000000     0.366300000000     0.750000000000     0          
C374     C      0.190400000000     0.309600000000     0.750000000000     0          
C375     C      0.471760000000     0.971760000000     0.750000000000     0          
C376     C      0.366300000000     0.866300000000     0.750000000000     0          
C377     C      0.309600000000     0.809600000000     0.750000000000     0          
C378     C      0.528240000000     0.028240000000     0.750000000000     0          
C379     C      0.633700000000     0.133700000000     0.750000000000     0          
C380     C      0.690400000000     0.190400000000     0.750000000000     0          


