data_GIGGAH

_audit_creation_method RASPA-1.0
_audit_creation_date 2020-11-2
_audit_author_name 'Rocio Bueno-Perez'

_cell_length_a    19.0375
_cell_length_b    19.0375
_cell_length_c    33.133
_cell_angle_alpha 90
_cell_angle_beta  90
_cell_angle_gamma 90
_cell_volume      12008.3

_symmetry_cell_setting          triclinic
_symmetry_space_group_name_Hall 'P 1'
_symmetry_space_group_name_H-M  'P 1'
_symmetry_Int_Tables_number     1

_symmetry_equiv_pos_as_xyz 'x,y,z'

loop_
_atom_site_label
_atom_site_type_symbol
_atom_site_fract_x
_atom_site_fract_y
_atom_site_fract_z
_atom_site_charge
O1       O      0.972000000000     0.093000000000     0.109100000000     0          
O2       O      0.939300000000     0.175500000000     0.060900000000     0          
O3       O      0.038400000000     0.082900000000     0.036000000000     0          
C4       C      0.976100000000     0.413900000000     0.224200000000     0          
C5       C      0.950400000000     0.192100000000     0.171200000000     0          
H6       H      0.963300000000     0.145900000000     0.176500000000     0          
C7       C      0.942300000000     0.151700000000     0.101300000000     0          
C8       C      0.946100000000     0.238600000000     0.203500000000     0          
H9       H      0.955600000000     0.226500000000     0.230100000000     0          
C10      C      0.921900000000     0.364800000000     0.221600000000     0          
C11      C      0.033500000000     0.409600000000     0.192600000000     0          
H12      H      0.032700000000     0.451200000000     0.176300000000     0          
H13      H      0.025800000000     0.369200000000     0.175900000000     0          
H14      H      0.078300000000     0.405500000000     0.205700000000     0          
C15      C      0.936100000000     0.211400000000     0.130900000000     0          
C16      C      0.925700000000     0.306500000000     0.190800000000     0          
C17      C      0.916500000000     0.275200000000     0.113400000000     0          
H18      H      0.907400000000     0.287600000000     0.086700000000     0          
C19      C      0.915000000000     0.314400000000     0.149300000000     0          
H20      H      0.903100000000     0.360800000000     0.143700000000     0          
O21      O      0.028000000000     0.907000000000     0.109100000000     0          
O22      O      0.060700000000     0.824500000000     0.060900000000     0          
O23      O      0.961600000000     0.917100000000     0.036000000000     0          
C24      C      0.023900000000     0.586100000000     0.224200000000     0          
C25      C      0.049600000000     0.807900000000     0.171200000000     0          
H26      H      0.036700000000     0.854100000000     0.176500000000     0          
C27      C      0.057700000000     0.848300000000     0.101300000000     0          
C28      C      0.053900000000     0.761400000000     0.203500000000     0          
H29      H      0.044400000000     0.773500000000     0.230100000000     0          
C30      C      0.078100000000     0.635200000000     0.221600000000     0          
C31      C      0.966500000000     0.590400000000     0.192600000000     0          
H32      H      0.967300000000     0.548800000000     0.176300000000     0          
H33      H      0.974200000000     0.630800000000     0.175900000000     0          
H34      H      0.921700000000     0.594500000000     0.205700000000     0          
C35      C      0.063900000000     0.788600000000     0.130900000000     0          
C36      C      0.074300000000     0.693500000000     0.190800000000     0          
C37      C      0.083500000000     0.724800000000     0.113400000000     0          
H38      H      0.092600000000     0.712400000000     0.086700000000     0          
C39      C      0.085000000000     0.685600000000     0.149300000000     0          
H40      H      0.096900000000     0.639200000000     0.143700000000     0          
H41      H      0.221400000000     0.678800000000     0.271200000000     0          
H42      H      0.212000000000     0.688200000000     0.224500000000     0          
H43      H      0.166900000000     0.733300000000     0.254400000000     0          
O44      O      0.907000000000     0.972000000000     0.109100000000     0          
O45      O      0.824500000000     0.939300000000     0.060900000000     0          
O46      O      0.917100000000     0.038400000000     0.036000000000     0          
C47      C      0.586100000000     0.976100000000     0.224200000000     0          
C48      C      0.807900000000     0.950400000000     0.171200000000     0          
H49      H      0.854100000000     0.963300000000     0.176500000000     0          
C50      C      0.848300000000     0.942300000000     0.101300000000     0          
C51      C      0.761400000000     0.946100000000     0.203500000000     0          
H52      H      0.773500000000     0.955600000000     0.230100000000     0          
C53      C      0.635200000000     0.921900000000     0.221600000000     0          
C54      C      0.590400000000     0.033500000000     0.192600000000     0          
H55      H      0.548800000000     0.032700000000     0.176300000000     0          
H56      H      0.630800000000     0.025800000000     0.175900000000     0          
H57      H      0.594500000000     0.078300000000     0.205700000000     0          
C58      C      0.788600000000     0.936100000000     0.130900000000     0          
C59      C      0.693500000000     0.925700000000     0.190800000000     0          
C60      C      0.724800000000     0.916500000000     0.113400000000     0          
H61      H      0.712400000000     0.907400000000     0.086700000000     0          
C62      C      0.685600000000     0.915000000000     0.149300000000     0          
H63      H      0.639200000000     0.903100000000     0.143700000000     0          
O64      O      0.093000000000     0.028000000000     0.109100000000     0          
O65      O      0.175500000000     0.060700000000     0.060900000000     0          
O66      O      0.082900000000     0.961600000000     0.036000000000     0          
C67      C      0.413900000000     0.023900000000     0.224200000000     0          
C68      C      0.192100000000     0.049600000000     0.171200000000     0          
H69      H      0.145900000000     0.036700000000     0.176500000000     0          
C70      C      0.151700000000     0.057700000000     0.101300000000     0          
C71      C      0.238600000000     0.053900000000     0.203500000000     0          
H72      H      0.226500000000     0.044400000000     0.230100000000     0          
C73      C      0.364800000000     0.078100000000     0.221600000000     0          
C74      C      0.409600000000     0.966500000000     0.192600000000     0          
H75      H      0.451200000000     0.967300000000     0.176300000000     0          
H76      H      0.369200000000     0.974200000000     0.175900000000     0          
H77      H      0.405500000000     0.921700000000     0.205700000000     0          
C78      C      0.211400000000     0.063900000000     0.130900000000     0          
C79      C      0.306500000000     0.074300000000     0.190800000000     0          
C80      C      0.275200000000     0.083500000000     0.113400000000     0          
H81      H      0.287600000000     0.092600000000     0.086700000000     0          
C82      C      0.314400000000     0.085000000000     0.149300000000     0          
H83      H      0.360800000000     0.096900000000     0.143700000000     0          
H84      H      0.321200000000     0.221400000000     0.271200000000     0          
H85      H      0.311800000000     0.212000000000     0.224500000000     0          
H86      H      0.266700000000     0.166900000000     0.254400000000     0          
O87      O      0.528000000000     0.593000000000     0.390900000000     0          
O88      O      0.560700000000     0.675500000000     0.439100000000     0          
O89      O      0.461600000000     0.582900000000     0.464000000000     0          
C90      C      0.523900000000     0.913900000000     0.275800000000     0          
C91      C      0.549600000000     0.692100000000     0.328800000000     0          
H92      H      0.536700000000     0.645900000000     0.323500000000     0          
C93      C      0.557700000000     0.651700000000     0.398700000000     0          
C94      C      0.553900000000     0.738600000000     0.296500000000     0          
H95      H      0.544400000000     0.726500000000     0.269900000000     0          
C96      C      0.578100000000     0.864800000000     0.278400000000     0          
C97      C      0.466500000000     0.909600000000     0.307400000000     0          
H98      H      0.467300000000     0.951200000000     0.323700000000     0          
H99      H      0.474200000000     0.869200000000     0.324100000000     0          
H100     H      0.421700000000     0.905500000000     0.294300000000     0          
C101     C      0.563900000000     0.711400000000     0.369100000000     0          
C102     C      0.574300000000     0.806500000000     0.309200000000     0          
C103     C      0.583500000000     0.775200000000     0.386600000000     0          
H104     H      0.592600000000     0.787600000000     0.413300000000     0          
C105     C      0.585000000000     0.814400000000     0.350700000000     0          
H106     H      0.596900000000     0.860800000000     0.356300000000     0          
H107     H      0.721400000000     0.821200000000     0.228800000000     0          
H108     H      0.712000000000     0.811800000000     0.275500000000     0          
H109     H      0.666900000000     0.766700000000     0.245600000000     0          
O110     O      0.472000000000     0.407000000000     0.390900000000     0          
O111     O      0.439300000000     0.324500000000     0.439100000000     0          
O112     O      0.538400000000     0.417100000000     0.464000000000     0          
C113     C      0.476100000000     0.086100000000     0.275800000000     0          
C114     C      0.450400000000     0.307900000000     0.328800000000     0          
H115     H      0.463300000000     0.354100000000     0.323500000000     0          
C116     C      0.442300000000     0.348300000000     0.398700000000     0          
C117     C      0.446100000000     0.261400000000     0.296500000000     0          
H118     H      0.455600000000     0.273500000000     0.269900000000     0          
C119     C      0.421900000000     0.135200000000     0.278400000000     0          
C120     C      0.533500000000     0.090400000000     0.307400000000     0          
H121     H      0.532700000000     0.048800000000     0.323700000000     0          
H122     H      0.525800000000     0.130800000000     0.324100000000     0          
H123     H      0.578300000000     0.094500000000     0.294300000000     0          
C124     C      0.436100000000     0.288600000000     0.369100000000     0          
C125     C      0.425700000000     0.193500000000     0.309200000000     0          
C126     C      0.416500000000     0.224800000000     0.386600000000     0          
H127     H      0.407400000000     0.212400000000     0.413300000000     0          
C128     C      0.415000000000     0.185600000000     0.350700000000     0          
H129     H      0.403100000000     0.139200000000     0.356300000000     0          
O130     O      0.593000000000     0.472000000000     0.390900000000     0          
O131     O      0.675500000000     0.439300000000     0.439100000000     0          
O132     O      0.582900000000     0.538400000000     0.464000000000     0          
C133     C      0.913900000000     0.476100000000     0.275800000000     0          
C134     C      0.692100000000     0.450400000000     0.328800000000     0          
H135     H      0.645900000000     0.463300000000     0.323500000000     0          
C136     C      0.651700000000     0.442300000000     0.398700000000     0          
C137     C      0.738600000000     0.446100000000     0.296500000000     0          
H138     H      0.726500000000     0.455600000000     0.269900000000     0          
C139     C      0.864800000000     0.421900000000     0.278400000000     0          
C140     C      0.909600000000     0.533500000000     0.307400000000     0          
H141     H      0.951200000000     0.532700000000     0.323700000000     0          
H142     H      0.869200000000     0.525800000000     0.324100000000     0          
H143     H      0.905500000000     0.578300000000     0.294300000000     0          
C144     C      0.711400000000     0.436100000000     0.369100000000     0          
C145     C      0.806500000000     0.425700000000     0.309200000000     0          
C146     C      0.775200000000     0.416500000000     0.386600000000     0          
H147     H      0.787600000000     0.407400000000     0.413300000000     0          
C148     C      0.814400000000     0.415000000000     0.350700000000     0          
H149     H      0.860800000000     0.403100000000     0.356300000000     0          
H150     H      0.821200000000     0.278600000000     0.228800000000     0          
H151     H      0.811800000000     0.288000000000     0.275500000000     0          
H152     H      0.766700000000     0.333100000000     0.245600000000     0          
O153     O      0.407000000000     0.528000000000     0.390900000000     0          
O154     O      0.324500000000     0.560700000000     0.439100000000     0          
O155     O      0.417100000000     0.461600000000     0.464000000000     0          
C156     C      0.086100000000     0.523900000000     0.275800000000     0          
C157     C      0.307900000000     0.549600000000     0.328800000000     0          
H158     H      0.354100000000     0.536700000000     0.323500000000     0          
C159     C      0.348300000000     0.557700000000     0.398700000000     0          
C160     C      0.261400000000     0.553900000000     0.296500000000     0          
H161     H      0.273500000000     0.544400000000     0.269900000000     0          
C162     C      0.135200000000     0.578100000000     0.278400000000     0          
C163     C      0.090400000000     0.466500000000     0.307400000000     0          
H164     H      0.048800000000     0.467300000000     0.323700000000     0          
H165     H      0.130800000000     0.474200000000     0.324100000000     0          
H166     H      0.094500000000     0.421700000000     0.294300000000     0          
C167     C      0.288600000000     0.563900000000     0.369100000000     0          
C168     C      0.193500000000     0.574300000000     0.309200000000     0          
C169     C      0.224800000000     0.583500000000     0.386600000000     0          
H170     H      0.212400000000     0.592600000000     0.413300000000     0          
C171     C      0.185600000000     0.585000000000     0.350700000000     0          
H172     H      0.139200000000     0.596900000000     0.356300000000     0          
O173     O      0.028000000000     0.907000000000     0.890900000000     0          
O174     O      0.060700000000     0.824500000000     0.939100000000     0          
O175     O      0.961600000000     0.917100000000     0.964000000000     0          
C176     C      0.023900000000     0.586100000000     0.775800000000     0          
C177     C      0.049600000000     0.807900000000     0.828800000000     0          
H178     H      0.036700000000     0.854100000000     0.823500000000     0          
C179     C      0.057700000000     0.848300000000     0.898700000000     0          
C180     C      0.053900000000     0.761400000000     0.796500000000     0          
H181     H      0.044400000000     0.773500000000     0.769900000000     0          
C182     C      0.078100000000     0.635200000000     0.778400000000     0          
C183     C      0.966500000000     0.590400000000     0.807400000000     0          
H184     H      0.967300000000     0.548800000000     0.823700000000     0          
H185     H      0.974200000000     0.630800000000     0.824100000000     0          
H186     H      0.921700000000     0.594500000000     0.794300000000     0          
C187     C      0.063900000000     0.788600000000     0.869100000000     0          
C188     C      0.074300000000     0.693500000000     0.809200000000     0          
C189     C      0.083500000000     0.724800000000     0.886600000000     0          
H190     H      0.092600000000     0.712400000000     0.913300000000     0          
C191     C      0.085000000000     0.685600000000     0.850700000000     0          
H192     H      0.096900000000     0.639200000000     0.856300000000     0          
H193     H      0.221400000000     0.678800000000     0.728800000000     0          
H194     H      0.212000000000     0.688200000000     0.775500000000     0          
H195     H      0.166900000000     0.733300000000     0.745600000000     0          
O196     O      0.972000000000     0.093000000000     0.890900000000     0          
O197     O      0.939300000000     0.175500000000     0.939100000000     0          
O198     O      0.038400000000     0.082900000000     0.964000000000     0          
C199     C      0.976100000000     0.413900000000     0.775800000000     0          
C200     C      0.950400000000     0.192100000000     0.828800000000     0          
H201     H      0.963300000000     0.145900000000     0.823500000000     0          
C202     C      0.942300000000     0.151700000000     0.898700000000     0          
C203     C      0.946100000000     0.238600000000     0.796500000000     0          
H204     H      0.955600000000     0.226500000000     0.769900000000     0          
C205     C      0.921900000000     0.364800000000     0.778400000000     0          
C206     C      0.033500000000     0.409600000000     0.807400000000     0          
H207     H      0.032700000000     0.451200000000     0.823700000000     0          
H208     H      0.025800000000     0.369200000000     0.824100000000     0          
H209     H      0.078300000000     0.405500000000     0.794300000000     0          
C210     C      0.936100000000     0.211400000000     0.869100000000     0          
C211     C      0.925700000000     0.306500000000     0.809200000000     0          
C212     C      0.916500000000     0.275200000000     0.886600000000     0          
H213     H      0.907400000000     0.287600000000     0.913300000000     0          
C214     C      0.915000000000     0.314400000000     0.850700000000     0          
H215     H      0.903100000000     0.360800000000     0.856300000000     0          
O216     O      0.093000000000     0.028000000000     0.890900000000     0          
O217     O      0.175500000000     0.060700000000     0.939100000000     0          
O218     O      0.082900000000     0.961600000000     0.964000000000     0          
C219     C      0.413900000000     0.023900000000     0.775800000000     0          
C220     C      0.192100000000     0.049600000000     0.828800000000     0          
H221     H      0.145900000000     0.036700000000     0.823500000000     0          
C222     C      0.151700000000     0.057700000000     0.898700000000     0          
C223     C      0.238600000000     0.053900000000     0.796500000000     0          
H224     H      0.226500000000     0.044400000000     0.769900000000     0          
C225     C      0.364800000000     0.078100000000     0.778400000000     0          
C226     C      0.409600000000     0.966500000000     0.807400000000     0          
H227     H      0.451200000000     0.967300000000     0.823700000000     0          
H228     H      0.369200000000     0.974200000000     0.824100000000     0          
H229     H      0.405500000000     0.921700000000     0.794300000000     0          
C230     C      0.211400000000     0.063900000000     0.869100000000     0          
C231     C      0.306500000000     0.074300000000     0.809200000000     0          
C232     C      0.275200000000     0.083500000000     0.886600000000     0          
H233     H      0.287600000000     0.092600000000     0.913300000000     0          
C234     C      0.314400000000     0.085000000000     0.850700000000     0          
H235     H      0.360800000000     0.096900000000     0.856300000000     0          
H236     H      0.321200000000     0.221400000000     0.728800000000     0          
H237     H      0.311800000000     0.212000000000     0.775500000000     0          
H238     H      0.266700000000     0.166900000000     0.745600000000     0          
O239     O      0.907000000000     0.972000000000     0.890900000000     0          
O240     O      0.824500000000     0.939300000000     0.939100000000     0          
O241     O      0.917100000000     0.038400000000     0.964000000000     0          
C242     C      0.586100000000     0.976100000000     0.775800000000     0          
C243     C      0.807900000000     0.950400000000     0.828800000000     0          
H244     H      0.854100000000     0.963300000000     0.823500000000     0          
C245     C      0.848300000000     0.942300000000     0.898700000000     0          
C246     C      0.761400000000     0.946100000000     0.796500000000     0          
H247     H      0.773500000000     0.955600000000     0.769900000000     0          
C248     C      0.635200000000     0.921900000000     0.778400000000     0          
C249     C      0.590400000000     0.033500000000     0.807400000000     0          
H250     H      0.548800000000     0.032700000000     0.823700000000     0          
H251     H      0.630800000000     0.025800000000     0.824100000000     0          
H252     H      0.594500000000     0.078300000000     0.794300000000     0          
C253     C      0.788600000000     0.936100000000     0.869100000000     0          
C254     C      0.693500000000     0.925700000000     0.809200000000     0          
C255     C      0.724800000000     0.916500000000     0.886600000000     0          
H256     H      0.712400000000     0.907400000000     0.913300000000     0          
C257     C      0.685600000000     0.915000000000     0.850700000000     0          
H258     H      0.639200000000     0.903100000000     0.856300000000     0          
H259     H      0.678800000000     0.778600000000     0.728800000000     0          
H260     H      0.688200000000     0.788000000000     0.775500000000     0          
H261     H      0.733300000000     0.833100000000     0.745600000000     0          
O262     O      0.472000000000     0.407000000000     0.609100000000     0          
O263     O      0.439300000000     0.324500000000     0.560900000000     0          
O264     O      0.538400000000     0.417100000000     0.536000000000     0          
C265     C      0.476100000000     0.086100000000     0.724200000000     0          
C266     C      0.450400000000     0.307900000000     0.671200000000     0          
H267     H      0.463300000000     0.354100000000     0.676500000000     0          
C268     C      0.442300000000     0.348300000000     0.601300000000     0          
C269     C      0.446100000000     0.261400000000     0.703500000000     0          
H270     H      0.455600000000     0.273500000000     0.730100000000     0          
C271     C      0.421900000000     0.135200000000     0.721600000000     0          
C272     C      0.533500000000     0.090400000000     0.692600000000     0          
H273     H      0.532700000000     0.048800000000     0.676300000000     0          
H274     H      0.525800000000     0.130800000000     0.675900000000     0          
H275     H      0.578300000000     0.094500000000     0.705700000000     0          
C276     C      0.436100000000     0.288600000000     0.630900000000     0          
C277     C      0.425700000000     0.193500000000     0.690800000000     0          
C278     C      0.416500000000     0.224800000000     0.613400000000     0          
H279     H      0.407400000000     0.212400000000     0.586700000000     0          
C280     C      0.415000000000     0.185600000000     0.649300000000     0          
H281     H      0.403100000000     0.139200000000     0.643700000000     0          
O282     O      0.528000000000     0.593000000000     0.609100000000     0          
O283     O      0.560700000000     0.675500000000     0.560900000000     0          
O284     O      0.461600000000     0.582900000000     0.536000000000     0          
C285     C      0.523900000000     0.913900000000     0.724200000000     0          
C286     C      0.549600000000     0.692100000000     0.671200000000     0          
H287     H      0.536700000000     0.645900000000     0.676500000000     0          
C288     C      0.557700000000     0.651700000000     0.601300000000     0          
C289     C      0.553900000000     0.738600000000     0.703500000000     0          
H290     H      0.544400000000     0.726500000000     0.730100000000     0          
C291     C      0.578100000000     0.864800000000     0.721600000000     0          
C292     C      0.466500000000     0.909600000000     0.692600000000     0          
H293     H      0.467300000000     0.951200000000     0.676300000000     0          
H294     H      0.474200000000     0.869200000000     0.675900000000     0          
H295     H      0.421700000000     0.905500000000     0.705700000000     0          
C296     C      0.563900000000     0.711400000000     0.630900000000     0          
C297     C      0.574300000000     0.806500000000     0.690800000000     0          
C298     C      0.583500000000     0.775200000000     0.613400000000     0          
H299     H      0.592600000000     0.787600000000     0.586700000000     0          
C300     C      0.585000000000     0.814400000000     0.649300000000     0          
H301     H      0.596900000000     0.860800000000     0.643700000000     0          
O302     O      0.407000000000     0.528000000000     0.609100000000     0          
O303     O      0.324500000000     0.560700000000     0.560900000000     0          
O304     O      0.417100000000     0.461600000000     0.536000000000     0          
C305     C      0.086100000000     0.523900000000     0.724200000000     0          
C306     C      0.307900000000     0.549600000000     0.671200000000     0          
H307     H      0.354100000000     0.536700000000     0.676500000000     0          
C308     C      0.348300000000     0.557700000000     0.601300000000     0          
C309     C      0.261400000000     0.553900000000     0.703500000000     0          
H310     H      0.273500000000     0.544400000000     0.730100000000     0          
C311     C      0.135200000000     0.578100000000     0.721600000000     0          
C312     C      0.090400000000     0.466500000000     0.692600000000     0          
H313     H      0.048800000000     0.467300000000     0.676300000000     0          
H314     H      0.130800000000     0.474200000000     0.675900000000     0          
H315     H      0.094500000000     0.421700000000     0.705700000000     0          
C316     C      0.288600000000     0.563900000000     0.630900000000     0          
C317     C      0.193500000000     0.574300000000     0.690800000000     0          
C318     C      0.224800000000     0.583500000000     0.613400000000     0          
H319     H      0.212400000000     0.592600000000     0.586700000000     0          
C320     C      0.185600000000     0.585000000000     0.649300000000     0          
H321     H      0.139200000000     0.596900000000     0.643700000000     0          
O322     O      0.593000000000     0.472000000000     0.609100000000     0          
O323     O      0.675500000000     0.439300000000     0.560900000000     0          
O324     O      0.582900000000     0.538400000000     0.536000000000     0          
C325     C      0.913900000000     0.476100000000     0.724200000000     0          
C326     C      0.692100000000     0.450400000000     0.671200000000     0          
H327     H      0.645900000000     0.463300000000     0.676500000000     0          
C328     C      0.651700000000     0.442300000000     0.601300000000     0          
C329     C      0.738600000000     0.446100000000     0.703500000000     0          
H330     H      0.726500000000     0.455600000000     0.730100000000     0          
C331     C      0.864800000000     0.421900000000     0.721600000000     0          
C332     C      0.909600000000     0.533500000000     0.692600000000     0          
H333     H      0.951200000000     0.532700000000     0.676300000000     0          
H334     H      0.869200000000     0.525800000000     0.675900000000     0          
H335     H      0.905500000000     0.578300000000     0.705700000000     0          
C336     C      0.711400000000     0.436100000000     0.630900000000     0          
C337     C      0.806500000000     0.425700000000     0.690800000000     0          
C338     C      0.775200000000     0.416500000000     0.613400000000     0          
H339     H      0.787600000000     0.407400000000     0.586700000000     0          
C340     C      0.814400000000     0.415000000000     0.649300000000     0          
H341     H      0.860800000000     0.403100000000     0.643700000000     0          
H342     H      0.821200000000     0.278600000000     0.771200000000     0          
H343     H      0.811800000000     0.288000000000     0.724500000000     0          
H344     H      0.766700000000     0.333100000000     0.754400000000     0          
Zr345    Zr     0.123990000000     0.044290000000     0.000000000000     0          
Zr346    Zr     0.876010000000     0.955710000000     0.000000000000     0          
Zr347    Zr     0.955710000000     0.123990000000     0.000000000000     0          
Zr348    Zr     0.044290000000     0.876010000000     0.000000000000     0          
Zr349    Zr     0.376010000000     0.544290000000     0.500000000000     0          
Zr350    Zr     0.623990000000     0.455710000000     0.500000000000     0          
Zr351    Zr     0.544290000000     0.623990000000     0.500000000000     0          
Zr352    Zr     0.455710000000     0.376010000000     0.500000000000     0          
Zr353    Zr     0.000000000000     0.000000000000     0.073660000000     0          
Zr354    Zr     0.500000000000     0.500000000000     0.426340000000     0          
Zr355    Zr     0.000000000000     0.000000000000     0.926340000000     0          
Zr356    Zr     0.500000000000     0.500000000000     0.573660000000     0          
C357     C      0.972040000000     0.472040000000     0.250000000000     0          
C358     C      0.867700000000     0.367700000000     0.250000000000     0          
C359     C      0.811800000000     0.311800000000     0.250000000000     0          
C360     C      0.027960000000     0.527960000000     0.250000000000     0          
C361     C      0.132300000000     0.632300000000     0.250000000000     0          
C362     C      0.188200000000     0.688200000000     0.250000000000     0          
C363     C      0.527960000000     0.972040000000     0.250000000000     0          
C364     C      0.632300000000     0.867700000000     0.250000000000     0          
C365     C      0.688200000000     0.811800000000     0.250000000000     0          
C366     C      0.472040000000     0.027960000000     0.250000000000     0          
C367     C      0.367700000000     0.132300000000     0.250000000000     0          
C368     C      0.311800000000     0.188200000000     0.250000000000     0          
C369     C      0.027960000000     0.527960000000     0.750000000000     0          
C370     C      0.132300000000     0.632300000000     0.750000000000     0          
C371     C      0.188200000000     0.688200000000     0.750000000000     0          
C372     C      0.972040000000     0.472040000000     0.750000000000     0          
C373     C      0.867700000000     0.367700000000     0.750000000000     0          
C374     C      0.811800000000     0.311800000000     0.750000000000     0          
C375     C      0.472040000000     0.027960000000     0.750000000000     0          
C376     C      0.367700000000     0.132300000000     0.750000000000     0          
C377     C      0.311800000000     0.188200000000     0.750000000000     0          
C378     C      0.527960000000     0.972040000000     0.750000000000     0          
C379     C      0.632300000000     0.867700000000     0.750000000000     0          
C380     C      0.688200000000     0.811800000000     0.750000000000     0          


