data_GOXZAW

_audit_creation_method RASPA-1.0
_audit_creation_date 2020-11-2
_audit_author_name 'Rocio Bueno-Perez'

_cell_length_a    10.0497
_cell_length_b    19.9849
_cell_length_c    19.7712
_cell_angle_alpha 90
_cell_angle_beta  90
_cell_angle_gamma 90
_cell_volume      3970.89

_symmetry_cell_setting          orthorhombic
_symmetry_space_group_name_Hall 'P 1'
_symmetry_space_group_name_H-M  'P 1'
_symmetry_Int_Tables_number     1

_symmetry_equiv_pos_as_xyz 'x,y,z'

loop_
_atom_site_label
_atom_site_type_symbol
_atom_site_fract_x
_atom_site_fract_y
_atom_site_fract_z
_atom_site_charge
O2       O      0.368300000000     0.162300000000     0.896200000000     0          
C2       C      0.284800000000     0.134700000000     0.857700000000     0          
H2       H      0.240400000000     0.162700000000     0.827600000000     0          
O3       O      0.338200000000     0.956600000000     0.805600000000     0          
O4       O      0.254800000000     0.074200000000     0.855100000000     0          
Zr1      Zr     0.323740000000     0.981360000000     0.912440000000     0          
O8       O      0.251100000000     0.874300000000     0.900000000000     0          
O9       O      0.368100000000     0.810000000000     0.972300000000     0          
C4       C      0.281000000000     0.820200000000     0.926900000000     0          
H4       H      0.234200000000     0.782800000000     0.912200000000     0          
O13?     O      0.109600000000     0.971200000000     0.924800000000     0          
O16?     O      0.296400000000     0.065900000000     0.983600000000     0          
C1       C      0.000000000000     0.958000000000     0.909200000000     0          
H1       H      0.000000000000     0.912100000000     0.901000000000     0          
C3       C      0.314000000000     0.979700000000     0.750000000000     0          
H3       H      0.271000000000     0.020900000000     0.750000000000     0          
O5       O      0.500000000000     0.044800000000     0.885100000000     0          
O6       O      0.500000000000     0.934100000000     0.937500000000     0          
Zr2      Zr     0.500000000000     0.119950000000     0.973950000000     0          
O14?     O      0.500000000000     0.912200000000     0.910500000000     0          
O2       O      0.631700000000     0.837700000000     0.396200000000     0          
C2       C      0.715200000000     0.865300000000     0.357700000000     0          
H2       H      0.759600000000     0.837300000000     0.327600000000     0          
O3       O      0.661800000000     0.043400000000     0.305600000000     0          
O4       O      0.745200000000     0.925800000000     0.355100000000     0          
Zr1      Zr     0.676260000000     0.018640000000     0.412440000000     0          
O8       O      0.748900000000     0.125700000000     0.400000000000     0          
O9       O      0.631900000000     0.190000000000     0.472300000000     0          
C4       C      0.719000000000     0.179800000000     0.426900000000     0          
H4       H      0.765800000000     0.217200000000     0.412200000000     0          
O13?     O      0.890400000000     0.028800000000     0.424800000000     0          
O16?     O      0.703600000000     0.934100000000     0.483600000000     0          
C1       C      0.000000000000     0.042000000000     0.409200000000     0          
H1       H      0.000000000000     0.087900000000     0.401000000000     0          
C3       C      0.686000000000     0.020300000000     0.250000000000     0          
H3       H      0.729000000000     0.979100000000     0.250000000000     0          
O5       O      0.500000000000     0.955200000000     0.385100000000     0          
O6       O      0.500000000000     0.065900000000     0.437500000000     0          
Zr2      Zr     0.500000000000     0.880050000000     0.473950000000     0          
O14?     O      0.500000000000     0.087800000000     0.410500000000     0          
O2       O      0.368300000000     0.837700000000     0.103800000000     0          
C2       C      0.284800000000     0.865300000000     0.142300000000     0          
H2       H      0.240400000000     0.837300000000     0.172400000000     0          
O3       O      0.338200000000     0.043400000000     0.194400000000     0          
O4       O      0.254800000000     0.925800000000     0.144900000000     0          
Zr1      Zr     0.323740000000     0.018640000000     0.087560000000     0          
O8       O      0.251100000000     0.125700000000     0.100000000000     0          
O9       O      0.368100000000     0.190000000000     0.027700000000     0          
C4       C      0.281000000000     0.179800000000     0.073100000000     0          
H4       H      0.234200000000     0.217200000000     0.087800000000     0          
O13?     O      0.109600000000     0.028800000000     0.075200000000     0          
O16?     O      0.296400000000     0.934100000000     0.016400000000     0          
C1       C      0.000000000000     0.042000000000     0.090800000000     0          
H1       H      0.000000000000     0.087900000000     0.099000000000     0          
C3       C      0.314000000000     0.020300000000     0.250000000000     0          
H3       H      0.271000000000     0.979100000000     0.250000000000     0          
O5       O      0.500000000000     0.955200000000     0.114900000000     0          
O6       O      0.500000000000     0.065900000000     0.062500000000     0          
Zr2      Zr     0.500000000000     0.880050000000     0.026050000000     0          
O14?     O      0.500000000000     0.087800000000     0.089500000000     0          
O2       O      0.631700000000     0.162300000000     0.603800000000     0          
C2       C      0.715200000000     0.134700000000     0.642300000000     0          
H2       H      0.759600000000     0.162700000000     0.672400000000     0          
O3       O      0.661800000000     0.956600000000     0.694400000000     0          
O4       O      0.745200000000     0.074200000000     0.644900000000     0          
Zr1      Zr     0.676260000000     0.981360000000     0.587560000000     0          
O8       O      0.748900000000     0.874300000000     0.600000000000     0          
O9       O      0.631900000000     0.810000000000     0.527700000000     0          
C4       C      0.719000000000     0.820200000000     0.573100000000     0          
H4       H      0.765800000000     0.782800000000     0.587800000000     0          
O13?     O      0.890400000000     0.971200000000     0.575200000000     0          
O16?     O      0.703600000000     0.065900000000     0.516400000000     0          
C1       C      0.000000000000     0.958000000000     0.590800000000     0          
H1       H      0.000000000000     0.912100000000     0.599000000000     0          
C3       C      0.686000000000     0.979700000000     0.750000000000     0          
H3       H      0.729000000000     0.020900000000     0.750000000000     0          
O5       O      0.500000000000     0.044800000000     0.614900000000     0          
O6       O      0.500000000000     0.934100000000     0.562500000000     0          
Zr2      Zr     0.500000000000     0.119950000000     0.526050000000     0          
O14?     O      0.500000000000     0.912200000000     0.589500000000     0          
O2       O      0.631700000000     0.837700000000     0.103800000000     0          
C2       C      0.715200000000     0.865300000000     0.142300000000     0          
H2       H      0.759600000000     0.837300000000     0.172400000000     0          
O3       O      0.661800000000     0.043400000000     0.194400000000     0          
O4       O      0.745200000000     0.925800000000     0.144900000000     0          
Zr1      Zr     0.676260000000     0.018640000000     0.087560000000     0          
O8       O      0.748900000000     0.125700000000     0.100000000000     0          
O9       O      0.631900000000     0.190000000000     0.027700000000     0          
C4       C      0.719000000000     0.179800000000     0.073100000000     0          
H4       H      0.765800000000     0.217200000000     0.087800000000     0          
O13?     O      0.890400000000     0.028800000000     0.075200000000     0          
O16?     O      0.703600000000     0.934100000000     0.016400000000     0          
O2       O      0.368300000000     0.162300000000     0.603800000000     0          
C2       C      0.284800000000     0.134700000000     0.642300000000     0          
H2       H      0.240400000000     0.162700000000     0.672400000000     0          
O3       O      0.338200000000     0.956600000000     0.694400000000     0          
O4       O      0.254800000000     0.074200000000     0.644900000000     0          
Zr1      Zr     0.323740000000     0.981360000000     0.587560000000     0          
O8       O      0.251100000000     0.874300000000     0.600000000000     0          
O9       O      0.368100000000     0.810000000000     0.527700000000     0          
C4       C      0.281000000000     0.820200000000     0.573100000000     0          
H4       H      0.234200000000     0.782800000000     0.587800000000     0          
O13?     O      0.109600000000     0.971200000000     0.575200000000     0          
O16?     O      0.296400000000     0.065900000000     0.516400000000     0          
O2       O      0.631700000000     0.162300000000     0.896200000000     0          
C2       C      0.715200000000     0.134700000000     0.857700000000     0          
H2       H      0.759600000000     0.162700000000     0.827600000000     0          
O3       O      0.661800000000     0.956600000000     0.805600000000     0          
O4       O      0.745200000000     0.074200000000     0.855100000000     0          
Zr1      Zr     0.676260000000     0.981360000000     0.912440000000     0          
O8       O      0.748900000000     0.874300000000     0.900000000000     0          
O9       O      0.631900000000     0.810000000000     0.972300000000     0          
C4       C      0.719000000000     0.820200000000     0.926900000000     0          
H4       H      0.765800000000     0.782800000000     0.912200000000     0          
O13?     O      0.890400000000     0.971200000000     0.924800000000     0          
O16?     O      0.703600000000     0.065900000000     0.983600000000     0          
O2       O      0.368300000000     0.837700000000     0.396200000000     0          
C2       C      0.284800000000     0.865300000000     0.357700000000     0          
H2       H      0.240400000000     0.837300000000     0.327600000000     0          
O3       O      0.338200000000     0.043400000000     0.305600000000     0          
O4       O      0.254800000000     0.925800000000     0.355100000000     0          
Zr1      Zr     0.323740000000     0.018640000000     0.412440000000     0          
O8       O      0.251100000000     0.125700000000     0.400000000000     0          
O9       O      0.368100000000     0.190000000000     0.472300000000     0          
C4       C      0.281000000000     0.179800000000     0.426900000000     0          
H4       H      0.234200000000     0.217200000000     0.412200000000     0          
O13?     O      0.109600000000     0.028800000000     0.424800000000     0          
O16?     O      0.296400000000     0.934100000000     0.483600000000     0          
O2       O      0.868300000000     0.662300000000     0.896200000000     0          
C2       C      0.784800000000     0.634700000000     0.857700000000     0          
H2       H      0.740400000000     0.662700000000     0.827600000000     0          
O3       O      0.838200000000     0.456600000000     0.805600000000     0          
O4       O      0.754800000000     0.574200000000     0.855100000000     0          
Zr1      Zr     0.823740000000     0.481360000000     0.912440000000     0          
O8       O      0.751100000000     0.374300000000     0.900000000000     0          
O9       O      0.868100000000     0.310000000000     0.972300000000     0          
C4       C      0.781000000000     0.320200000000     0.926900000000     0          
H4       H      0.734200000000     0.282800000000     0.912200000000     0          
O13?     O      0.609600000000     0.471200000000     0.924800000000     0          
O16?     O      0.796400000000     0.565900000000     0.983600000000     0          
C1       C      0.500000000000     0.458000000000     0.909200000000     0          
H1       H      0.500000000000     0.412100000000     0.901000000000     0          
C3       C      0.814000000000     0.479700000000     0.750000000000     0          
H3       H      0.771000000000     0.520900000000     0.750000000000     0          
O5       O      0.000000000000     0.544800000000     0.885100000000     0          
O6       O      0.000000000000     0.434100000000     0.937500000000     0          
Zr2      Zr     0.000000000000     0.619950000000     0.973950000000     0          
O14?     O      0.000000000000     0.412200000000     0.910500000000     0          
O2       O      0.131700000000     0.337700000000     0.396200000000     0          
C2       C      0.215200000000     0.365300000000     0.357700000000     0          
H2       H      0.259600000000     0.337300000000     0.327600000000     0          
O3       O      0.161800000000     0.543400000000     0.305600000000     0          
O4       O      0.245200000000     0.425800000000     0.355100000000     0          
Zr1      Zr     0.176260000000     0.518640000000     0.412440000000     0          
O8       O      0.248900000000     0.625700000000     0.400000000000     0          
O9       O      0.131900000000     0.690000000000     0.472300000000     0          
C4       C      0.219000000000     0.679800000000     0.426900000000     0          
H4       H      0.265800000000     0.717200000000     0.412200000000     0          
O13?     O      0.390400000000     0.528800000000     0.424800000000     0          
O16?     O      0.203600000000     0.434100000000     0.483600000000     0          
C1       C      0.500000000000     0.542000000000     0.409200000000     0          
H1       H      0.500000000000     0.587900000000     0.401000000000     0          
C3       C      0.186000000000     0.520300000000     0.250000000000     0          
H3       H      0.229000000000     0.479100000000     0.250000000000     0          
O5       O      0.000000000000     0.455200000000     0.385100000000     0          
O6       O      0.000000000000     0.565900000000     0.437500000000     0          
Zr2      Zr     0.000000000000     0.380050000000     0.473950000000     0          
O14?     O      0.000000000000     0.587800000000     0.410500000000     0          
O2       O      0.868300000000     0.337700000000     0.103800000000     0          
C2       C      0.784800000000     0.365300000000     0.142300000000     0          
H2       H      0.740400000000     0.337300000000     0.172400000000     0          
O3       O      0.838200000000     0.543400000000     0.194400000000     0          
O4       O      0.754800000000     0.425800000000     0.144900000000     0          
Zr1      Zr     0.823740000000     0.518640000000     0.087560000000     0          
O8       O      0.751100000000     0.625700000000     0.100000000000     0          
O9       O      0.868100000000     0.690000000000     0.027700000000     0          
C4       C      0.781000000000     0.679800000000     0.073100000000     0          
H4       H      0.734200000000     0.717200000000     0.087800000000     0          
O13?     O      0.609600000000     0.528800000000     0.075200000000     0          
O16?     O      0.796400000000     0.434100000000     0.016400000000     0          
C1       C      0.500000000000     0.542000000000     0.090800000000     0          
H1       H      0.500000000000     0.587900000000     0.099000000000     0          
C3       C      0.814000000000     0.520300000000     0.250000000000     0          
H3       H      0.771000000000     0.479100000000     0.250000000000     0          
O5       O      0.000000000000     0.455200000000     0.114900000000     0          
O6       O      0.000000000000     0.565900000000     0.062500000000     0          
Zr2      Zr     0.000000000000     0.380050000000     0.026050000000     0          
O14?     O      0.000000000000     0.587800000000     0.089500000000     0          
O2       O      0.131700000000     0.662300000000     0.603800000000     0          
C2       C      0.215200000000     0.634700000000     0.642300000000     0          
H2       H      0.259600000000     0.662700000000     0.672400000000     0          
O3       O      0.161800000000     0.456600000000     0.694400000000     0          
O4       O      0.245200000000     0.574200000000     0.644900000000     0          
Zr1      Zr     0.176260000000     0.481360000000     0.587560000000     0          
O8       O      0.248900000000     0.374300000000     0.600000000000     0          
O9       O      0.131900000000     0.310000000000     0.527700000000     0          
C4       C      0.219000000000     0.320200000000     0.573100000000     0          
H4       H      0.265800000000     0.282800000000     0.587800000000     0          
O13?     O      0.390400000000     0.471200000000     0.575200000000     0          
O16?     O      0.203600000000     0.565900000000     0.516400000000     0          
C1       C      0.500000000000     0.458000000000     0.590800000000     0          
H1       H      0.500000000000     0.412100000000     0.599000000000     0          
C3       C      0.186000000000     0.479700000000     0.750000000000     0          
H3       H      0.229000000000     0.520900000000     0.750000000000     0          
O5       O      0.000000000000     0.544800000000     0.614900000000     0          
O6       O      0.000000000000     0.434100000000     0.562500000000     0          
Zr2      Zr     0.000000000000     0.619950000000     0.526050000000     0          
O14?     O      0.000000000000     0.412200000000     0.589500000000     0          
O2       O      0.131700000000     0.337700000000     0.103800000000     0          
C2       C      0.215200000000     0.365300000000     0.142300000000     0          
H2       H      0.259600000000     0.337300000000     0.172400000000     0          
O3       O      0.161800000000     0.543400000000     0.194400000000     0          
O4       O      0.245200000000     0.425800000000     0.144900000000     0          
Zr1      Zr     0.176260000000     0.518640000000     0.087560000000     0          
O8       O      0.248900000000     0.625700000000     0.100000000000     0          
O9       O      0.131900000000     0.690000000000     0.027700000000     0          
C4       C      0.219000000000     0.679800000000     0.073100000000     0          
H4       H      0.265800000000     0.717200000000     0.087800000000     0          
O13?     O      0.390400000000     0.528800000000     0.075200000000     0          
O16?     O      0.203600000000     0.434100000000     0.016400000000     0          
O2       O      0.868300000000     0.662300000000     0.603800000000     0          
C2       C      0.784800000000     0.634700000000     0.642300000000     0          
H2       H      0.740400000000     0.662700000000     0.672400000000     0          
O3       O      0.838200000000     0.456600000000     0.694400000000     0          
O4       O      0.754800000000     0.574200000000     0.644900000000     0          
Zr1      Zr     0.823740000000     0.481360000000     0.587560000000     0          
O8       O      0.751100000000     0.374300000000     0.600000000000     0          
O9       O      0.868100000000     0.310000000000     0.527700000000     0          
C4       C      0.781000000000     0.320200000000     0.573100000000     0          
H4       H      0.734200000000     0.282800000000     0.587800000000     0          
O13?     O      0.609600000000     0.471200000000     0.575200000000     0          
O16?     O      0.796400000000     0.565900000000     0.516400000000     0          
O2       O      0.131700000000     0.662300000000     0.896200000000     0          
C2       C      0.215200000000     0.634700000000     0.857700000000     0          
H2       H      0.259600000000     0.662700000000     0.827600000000     0          
O3       O      0.161800000000     0.456600000000     0.805600000000     0          
O4       O      0.245200000000     0.574200000000     0.855100000000     0          
Zr1      Zr     0.176260000000     0.481360000000     0.912440000000     0          
O8       O      0.248900000000     0.374300000000     0.900000000000     0          
O9       O      0.131900000000     0.310000000000     0.972300000000     0          
C4       C      0.219000000000     0.320200000000     0.926900000000     0          
H4       H      0.265800000000     0.282800000000     0.912200000000     0          
O13?     O      0.390400000000     0.471200000000     0.924800000000     0          
O16?     O      0.203600000000     0.565900000000     0.983600000000     0          
O2       O      0.868300000000     0.337700000000     0.396200000000     0          
C2       C      0.784800000000     0.365300000000     0.357700000000     0          
H2       H      0.740400000000     0.337300000000     0.327600000000     0          
O3       O      0.838200000000     0.543400000000     0.305600000000     0          
O4       O      0.754800000000     0.425800000000     0.355100000000     0          
Zr1      Zr     0.823740000000     0.518640000000     0.412440000000     0          
O8       O      0.751100000000     0.625700000000     0.400000000000     0          
O9       O      0.868100000000     0.690000000000     0.472300000000     0          
C4       C      0.781000000000     0.679800000000     0.426900000000     0          
H4       H      0.734200000000     0.717200000000     0.412200000000     0          
O13?     O      0.609600000000     0.528800000000     0.424800000000     0          
O16?     O      0.796400000000     0.434100000000     0.483600000000     0          


