data_HERHIY

_audit_creation_method RASPA-1.0
_audit_creation_date 2020-11-2
_audit_author_name 'Rocio Bueno-Perez'

_cell_length_a    14.4079
_cell_length_b    36.465
_cell_length_c    16.1805
_cell_angle_alpha 90
_cell_angle_beta  90
_cell_angle_gamma 90
_cell_volume      8500.98

_symmetry_cell_setting          orthorhombic
_symmetry_space_group_name_Hall 'P 1'
_symmetry_space_group_name_H-M  'P 1'
_symmetry_Int_Tables_number     1

_symmetry_equiv_pos_as_xyz 'x,y,z'

loop_
_atom_site_label
_atom_site_type_symbol
_atom_site_fract_x
_atom_site_fract_y
_atom_site_fract_z
_atom_site_charge
O4       O      0.670800000000     0.555000000000     0.662300000000     0          
O6       O      0.585400000000     0.596520000000     0.580100000000     0          
C2       C      0.736800000000     0.719100000000     0.909400000000     0          
H1       H      0.726600000000     0.697000000000     0.939100000000     0          
C3       C      0.665000000000     0.620000000000     0.691400000000     0          
C4       C      0.710000000000     0.682000000000     0.777400000000     0          
C5       C      0.729500000000     0.619900000000     0.743900000000     0          
H2       H      0.765200000000     0.598300000000     0.752200000000     0          
C6       C      0.748900000000     0.651700000000     0.790400000000     0          
H3       H      0.793200000000     0.650100000000     0.833700000000     0          
C7       C      0.737300000000     0.717900000000     0.824600000000     0          
H4       H      0.758200000000     0.770600000000     0.666100000000     0          
C9       C      0.620900000000     0.653200000000     0.679300000000     0          
H5       H      0.575800000000     0.653700000000     0.636500000000     0          
C10      C      0.633500000000     0.684800000000     0.719800000000     0          
H6       H      0.597000000000     0.706200000000     0.712000000000     0          
C11      C      0.638600000000     0.586800000000     0.641500000000     0          
Zr1      Zr     0.377940000000     0.500000000000     0.389980000000     0          
Zr2      Zr     0.500000000000     0.566010000000     0.500000000000     0          
O1       O      0.500000000000     0.529500000000     0.390400000000     0          
O2       O      0.371600000000     0.532000000000     0.500000000000     0          
C1       C      0.750000000000     0.750000000000     0.951800000000     0          
C8       C      0.750000000000     0.750000000000     0.780700000000     0          
N1       N      0.750000000000     0.750000000000     0.693300000000     0          
O4       O      0.329200000000     0.445000000000     0.662300000000     0          
O6       O      0.414600000000     0.403480000000     0.580100000000     0          
C2       C      0.263200000000     0.280900000000     0.909400000000     0          
H1       H      0.273400000000     0.303000000000     0.939100000000     0          
C3       C      0.335000000000     0.380000000000     0.691400000000     0          
C4       C      0.290000000000     0.318000000000     0.777400000000     0          
C5       C      0.270500000000     0.380100000000     0.743900000000     0          
H2       H      0.234800000000     0.401700000000     0.752200000000     0          
C6       C      0.251100000000     0.348300000000     0.790400000000     0          
H3       H      0.206800000000     0.349900000000     0.833700000000     0          
C7       C      0.262700000000     0.282100000000     0.824600000000     0          
H4       H      0.241800000000     0.229400000000     0.666100000000     0          
C9       C      0.379100000000     0.346800000000     0.679300000000     0          
H5       H      0.424200000000     0.346300000000     0.636500000000     0          
C10      C      0.366500000000     0.315200000000     0.719800000000     0          
H6       H      0.403000000000     0.293800000000     0.712000000000     0          
C11      C      0.361400000000     0.413200000000     0.641500000000     0          
Zr1      Zr     0.622060000000     0.500000000000     0.389980000000     0          
Zr2      Zr     0.500000000000     0.433990000000     0.500000000000     0          
O1       O      0.500000000000     0.470500000000     0.390400000000     0          
O2       O      0.628400000000     0.468000000000     0.500000000000     0          
C1       C      0.250000000000     0.250000000000     0.951800000000     0          
C8       C      0.250000000000     0.250000000000     0.780700000000     0          
N1       N      0.250000000000     0.250000000000     0.693300000000     0          
O4       O      0.670800000000     0.445000000000     0.337700000000     0          
O6       O      0.585400000000     0.403480000000     0.419900000000     0          
C2       C      0.736800000000     0.280900000000     0.090600000000     0          
H1       H      0.726600000000     0.303000000000     0.060900000000     0          
C3       C      0.665000000000     0.380000000000     0.308600000000     0          
C4       C      0.710000000000     0.318000000000     0.222600000000     0          
C5       C      0.729500000000     0.380100000000     0.256100000000     0          
H2       H      0.765200000000     0.401700000000     0.247800000000     0          
C6       C      0.748900000000     0.348300000000     0.209600000000     0          
H3       H      0.793200000000     0.349900000000     0.166300000000     0          
C7       C      0.737300000000     0.282100000000     0.175400000000     0          
H4       H      0.758200000000     0.229400000000     0.333900000000     0          
C9       C      0.620900000000     0.346800000000     0.320700000000     0          
H5       H      0.575800000000     0.346300000000     0.363500000000     0          
C10      C      0.633500000000     0.315200000000     0.280200000000     0          
H6       H      0.597000000000     0.293800000000     0.288000000000     0          
C11      C      0.638600000000     0.413200000000     0.358500000000     0          
Zr1      Zr     0.377940000000     0.500000000000     0.610020000000     0          
O1       O      0.500000000000     0.470500000000     0.609600000000     0          
O2       O      0.371600000000     0.468000000000     0.500000000000     0          
C1       C      0.750000000000     0.250000000000     0.048200000000     0          
C8       C      0.750000000000     0.250000000000     0.219300000000     0          
N1       N      0.750000000000     0.250000000000     0.306700000000     0          
O4       O      0.329200000000     0.555000000000     0.337700000000     0          
O6       O      0.414600000000     0.596520000000     0.419900000000     0          
C2       C      0.263200000000     0.719100000000     0.090600000000     0          
H1       H      0.273400000000     0.697000000000     0.060900000000     0          
C3       C      0.335000000000     0.620000000000     0.308600000000     0          
C4       C      0.290000000000     0.682000000000     0.222600000000     0          
C5       C      0.270500000000     0.619900000000     0.256100000000     0          
H2       H      0.234800000000     0.598300000000     0.247800000000     0          
C6       C      0.251100000000     0.651700000000     0.209600000000     0          
H3       H      0.206800000000     0.650100000000     0.166300000000     0          
C7       C      0.262700000000     0.717900000000     0.175400000000     0          
H4       H      0.241800000000     0.770600000000     0.333900000000     0          
C9       C      0.379100000000     0.653200000000     0.320700000000     0          
H5       H      0.424200000000     0.653700000000     0.363500000000     0          
C10      C      0.366500000000     0.684800000000     0.280200000000     0          
H6       H      0.403000000000     0.706200000000     0.288000000000     0          
C11      C      0.361400000000     0.586800000000     0.358500000000     0          
Zr1      Zr     0.622060000000     0.500000000000     0.610020000000     0          
O1       O      0.500000000000     0.529500000000     0.609600000000     0          
O2       O      0.628400000000     0.532000000000     0.500000000000     0          
C1       C      0.250000000000     0.750000000000     0.048200000000     0          
C8       C      0.250000000000     0.750000000000     0.219300000000     0          
N1       N      0.250000000000     0.750000000000     0.306700000000     0          
O4       O      0.329200000000     0.445000000000     0.337700000000     0          
O6       O      0.414600000000     0.403480000000     0.419900000000     0          
C2       C      0.263200000000     0.280900000000     0.090600000000     0          
H1       H      0.273400000000     0.303000000000     0.060900000000     0          
C3       C      0.335000000000     0.380000000000     0.308600000000     0          
C4       C      0.290000000000     0.318000000000     0.222600000000     0          
C5       C      0.270500000000     0.380100000000     0.256100000000     0          
H2       H      0.234800000000     0.401700000000     0.247800000000     0          
C6       C      0.251100000000     0.348300000000     0.209600000000     0          
H3       H      0.206800000000     0.349900000000     0.166300000000     0          
C7       C      0.262700000000     0.282100000000     0.175400000000     0          
H4       H      0.241800000000     0.229400000000     0.333900000000     0          
C9       C      0.379100000000     0.346800000000     0.320700000000     0          
H5       H      0.424200000000     0.346300000000     0.363500000000     0          
C10      C      0.366500000000     0.315200000000     0.280200000000     0          
H6       H      0.403000000000     0.293800000000     0.288000000000     0          
C11      C      0.361400000000     0.413200000000     0.358500000000     0          
C1       C      0.250000000000     0.250000000000     0.048200000000     0          
C8       C      0.250000000000     0.250000000000     0.219300000000     0          
N1       N      0.250000000000     0.250000000000     0.306700000000     0          
O4       O      0.670800000000     0.555000000000     0.337700000000     0          
O6       O      0.585400000000     0.596520000000     0.419900000000     0          
C2       C      0.736800000000     0.719100000000     0.090600000000     0          
H1       H      0.726600000000     0.697000000000     0.060900000000     0          
C3       C      0.665000000000     0.620000000000     0.308600000000     0          
C4       C      0.710000000000     0.682000000000     0.222600000000     0          
C5       C      0.729500000000     0.619900000000     0.256100000000     0          
H2       H      0.765200000000     0.598300000000     0.247800000000     0          
C6       C      0.748900000000     0.651700000000     0.209600000000     0          
H3       H      0.793200000000     0.650100000000     0.166300000000     0          
C7       C      0.737300000000     0.717900000000     0.175400000000     0          
H4       H      0.758200000000     0.770600000000     0.333900000000     0          
C9       C      0.620900000000     0.653200000000     0.320700000000     0          
H5       H      0.575800000000     0.653700000000     0.363500000000     0          
C10      C      0.633500000000     0.684800000000     0.280200000000     0          
H6       H      0.597000000000     0.706200000000     0.288000000000     0          
C11      C      0.638600000000     0.586800000000     0.358500000000     0          
C1       C      0.750000000000     0.750000000000     0.048200000000     0          
C8       C      0.750000000000     0.750000000000     0.219300000000     0          
N1       N      0.750000000000     0.750000000000     0.306700000000     0          
O4       O      0.329200000000     0.555000000000     0.662300000000     0          
O6       O      0.414600000000     0.596520000000     0.580100000000     0          
C2       C      0.263200000000     0.719100000000     0.909400000000     0          
H1       H      0.273400000000     0.697000000000     0.939100000000     0          
C3       C      0.335000000000     0.620000000000     0.691400000000     0          
C4       C      0.290000000000     0.682000000000     0.777400000000     0          
C5       C      0.270500000000     0.619900000000     0.743900000000     0          
H2       H      0.234800000000     0.598300000000     0.752200000000     0          
C6       C      0.251100000000     0.651700000000     0.790400000000     0          
H3       H      0.206800000000     0.650100000000     0.833700000000     0          
C7       C      0.262700000000     0.717900000000     0.824600000000     0          
H4       H      0.241800000000     0.770600000000     0.666100000000     0          
C9       C      0.379100000000     0.653200000000     0.679300000000     0          
H5       H      0.424200000000     0.653700000000     0.636500000000     0          
C10      C      0.366500000000     0.684800000000     0.719800000000     0          
H6       H      0.403000000000     0.706200000000     0.712000000000     0          
C11      C      0.361400000000     0.586800000000     0.641500000000     0          
C1       C      0.250000000000     0.750000000000     0.951800000000     0          
C8       C      0.250000000000     0.750000000000     0.780700000000     0          
N1       N      0.250000000000     0.750000000000     0.693300000000     0          
O4       O      0.670800000000     0.445000000000     0.662300000000     0          
O6       O      0.585400000000     0.403480000000     0.580100000000     0          
C2       C      0.736800000000     0.280900000000     0.909400000000     0          
H1       H      0.726600000000     0.303000000000     0.939100000000     0          
C3       C      0.665000000000     0.380000000000     0.691400000000     0          
C4       C      0.710000000000     0.318000000000     0.777400000000     0          
C5       C      0.729500000000     0.380100000000     0.743900000000     0          
H2       H      0.765200000000     0.401700000000     0.752200000000     0          
C6       C      0.748900000000     0.348300000000     0.790400000000     0          
H3       H      0.793200000000     0.349900000000     0.833700000000     0          
C7       C      0.737300000000     0.282100000000     0.824600000000     0          
H4       H      0.758200000000     0.229400000000     0.666100000000     0          
C9       C      0.620900000000     0.346800000000     0.679300000000     0          
H5       H      0.575800000000     0.346300000000     0.636500000000     0          
C10      C      0.633500000000     0.315200000000     0.719800000000     0          
H6       H      0.597000000000     0.293800000000     0.712000000000     0          
C11      C      0.638600000000     0.413200000000     0.641500000000     0          
C1       C      0.750000000000     0.250000000000     0.951800000000     0          
C8       C      0.750000000000     0.250000000000     0.780700000000     0          
N1       N      0.750000000000     0.250000000000     0.693300000000     0          
O4       O      0.170800000000     0.055000000000     0.662300000000     0          
O6       O      0.085400000000     0.096520000000     0.580100000000     0          
C2       C      0.236800000000     0.219100000000     0.909400000000     0          
H1       H      0.226600000000     0.197000000000     0.939100000000     0          
C3       C      0.165000000000     0.120000000000     0.691400000000     0          
C4       C      0.210000000000     0.182000000000     0.777400000000     0          
C5       C      0.229500000000     0.119900000000     0.743900000000     0          
H2       H      0.265200000000     0.098300000000     0.752200000000     0          
C6       C      0.248900000000     0.151700000000     0.790400000000     0          
H3       H      0.293200000000     0.150100000000     0.833700000000     0          
C7       C      0.237300000000     0.217900000000     0.824600000000     0          
H4       H      0.258200000000     0.270600000000     0.666100000000     0          
C9       C      0.120900000000     0.153200000000     0.679300000000     0          
H5       H      0.075800000000     0.153700000000     0.636500000000     0          
C10      C      0.133500000000     0.184800000000     0.719800000000     0          
H6       H      0.097000000000     0.206200000000     0.712000000000     0          
C11      C      0.138600000000     0.086800000000     0.641500000000     0          
Zr1      Zr     0.877940000000     0.000000000000     0.389980000000     0          
Zr2      Zr     0.000000000000     0.066010000000     0.500000000000     0          
O1       O      0.000000000000     0.029500000000     0.390400000000     0          
O2       O      0.871600000000     0.032000000000     0.500000000000     0          
O4       O      0.829200000000     0.945000000000     0.662300000000     0          
O6       O      0.914600000000     0.903480000000     0.580100000000     0          
C2       C      0.763200000000     0.780900000000     0.909400000000     0          
H1       H      0.773400000000     0.803000000000     0.939100000000     0          
C3       C      0.835000000000     0.880000000000     0.691400000000     0          
C4       C      0.790000000000     0.818000000000     0.777400000000     0          
C5       C      0.770500000000     0.880100000000     0.743900000000     0          
H2       H      0.734800000000     0.901700000000     0.752200000000     0          
C6       C      0.751100000000     0.848300000000     0.790400000000     0          
H3       H      0.706800000000     0.849900000000     0.833700000000     0          
C7       C      0.762700000000     0.782100000000     0.824600000000     0          
H4       H      0.741800000000     0.729400000000     0.666100000000     0          
C9       C      0.879100000000     0.846800000000     0.679300000000     0          
H5       H      0.924200000000     0.846300000000     0.636500000000     0          
C10      C      0.866500000000     0.815200000000     0.719800000000     0          
H6       H      0.903000000000     0.793800000000     0.712000000000     0          
C11      C      0.861400000000     0.913200000000     0.641500000000     0          
Zr1      Zr     0.122060000000     0.000000000000     0.389980000000     0          
Zr2      Zr     0.000000000000     0.933990000000     0.500000000000     0          
O1       O      0.000000000000     0.970500000000     0.390400000000     0          
O2       O      0.128400000000     0.968000000000     0.500000000000     0          
O4       O      0.170800000000     0.945000000000     0.337700000000     0          
O6       O      0.085400000000     0.903480000000     0.419900000000     0          
C2       C      0.236800000000     0.780900000000     0.090600000000     0          
H1       H      0.226600000000     0.803000000000     0.060900000000     0          
C3       C      0.165000000000     0.880000000000     0.308600000000     0          
C4       C      0.210000000000     0.818000000000     0.222600000000     0          
C5       C      0.229500000000     0.880100000000     0.256100000000     0          
H2       H      0.265200000000     0.901700000000     0.247800000000     0          
C6       C      0.248900000000     0.848300000000     0.209600000000     0          
H3       H      0.293200000000     0.849900000000     0.166300000000     0          
C7       C      0.237300000000     0.782100000000     0.175400000000     0          
H4       H      0.258200000000     0.729400000000     0.333900000000     0          
C9       C      0.120900000000     0.846800000000     0.320700000000     0          
H5       H      0.075800000000     0.846300000000     0.363500000000     0          
C10      C      0.133500000000     0.815200000000     0.280200000000     0          
H6       H      0.097000000000     0.793800000000     0.288000000000     0          
C11      C      0.138600000000     0.913200000000     0.358500000000     0          
Zr1      Zr     0.877940000000     0.000000000000     0.610020000000     0          
O1       O      0.000000000000     0.970500000000     0.609600000000     0          
O2       O      0.871600000000     0.968000000000     0.500000000000     0          
O4       O      0.829200000000     0.055000000000     0.337700000000     0          
O6       O      0.914600000000     0.096520000000     0.419900000000     0          
C2       C      0.763200000000     0.219100000000     0.090600000000     0          
H1       H      0.773400000000     0.197000000000     0.060900000000     0          
C3       C      0.835000000000     0.120000000000     0.308600000000     0          
C4       C      0.790000000000     0.182000000000     0.222600000000     0          
C5       C      0.770500000000     0.119900000000     0.256100000000     0          
H2       H      0.734800000000     0.098300000000     0.247800000000     0          
C6       C      0.751100000000     0.151700000000     0.209600000000     0          
H3       H      0.706800000000     0.150100000000     0.166300000000     0          
C7       C      0.762700000000     0.217900000000     0.175400000000     0          
H4       H      0.741800000000     0.270600000000     0.333900000000     0          
C9       C      0.879100000000     0.153200000000     0.320700000000     0          
H5       H      0.924200000000     0.153700000000     0.363500000000     0          
C10      C      0.866500000000     0.184800000000     0.280200000000     0          
H6       H      0.903000000000     0.206200000000     0.288000000000     0          
C11      C      0.861400000000     0.086800000000     0.358500000000     0          
Zr1      Zr     0.122060000000     0.000000000000     0.610020000000     0          
O1       O      0.000000000000     0.029500000000     0.609600000000     0          
O2       O      0.128400000000     0.032000000000     0.500000000000     0          
O4       O      0.829200000000     0.945000000000     0.337700000000     0          
O6       O      0.914600000000     0.903480000000     0.419900000000     0          
C2       C      0.763200000000     0.780900000000     0.090600000000     0          
H1       H      0.773400000000     0.803000000000     0.060900000000     0          
C3       C      0.835000000000     0.880000000000     0.308600000000     0          
C4       C      0.790000000000     0.818000000000     0.222600000000     0          
C5       C      0.770500000000     0.880100000000     0.256100000000     0          
H2       H      0.734800000000     0.901700000000     0.247800000000     0          
C6       C      0.751100000000     0.848300000000     0.209600000000     0          
H3       H      0.706800000000     0.849900000000     0.166300000000     0          
C7       C      0.762700000000     0.782100000000     0.175400000000     0          
H4       H      0.741800000000     0.729400000000     0.333900000000     0          
C9       C      0.879100000000     0.846800000000     0.320700000000     0          
H5       H      0.924200000000     0.846300000000     0.363500000000     0          
C10      C      0.866500000000     0.815200000000     0.280200000000     0          
H6       H      0.903000000000     0.793800000000     0.288000000000     0          
C11      C      0.861400000000     0.913200000000     0.358500000000     0          
O4       O      0.170800000000     0.055000000000     0.337700000000     0          
O6       O      0.085400000000     0.096520000000     0.419900000000     0          
C2       C      0.236800000000     0.219100000000     0.090600000000     0          
H1       H      0.226600000000     0.197000000000     0.060900000000     0          
C3       C      0.165000000000     0.120000000000     0.308600000000     0          
C4       C      0.210000000000     0.182000000000     0.222600000000     0          
C5       C      0.229500000000     0.119900000000     0.256100000000     0          
H2       H      0.265200000000     0.098300000000     0.247800000000     0          
C6       C      0.248900000000     0.151700000000     0.209600000000     0          
H3       H      0.293200000000     0.150100000000     0.166300000000     0          
C7       C      0.237300000000     0.217900000000     0.175400000000     0          
H4       H      0.258200000000     0.270600000000     0.333900000000     0          
C9       C      0.120900000000     0.153200000000     0.320700000000     0          
H5       H      0.075800000000     0.153700000000     0.363500000000     0          
C10      C      0.133500000000     0.184800000000     0.280200000000     0          
H6       H      0.097000000000     0.206200000000     0.288000000000     0          
C11      C      0.138600000000     0.086800000000     0.358500000000     0          
O4       O      0.829200000000     0.055000000000     0.662300000000     0          
O6       O      0.914600000000     0.096520000000     0.580100000000     0          
C2       C      0.763200000000     0.219100000000     0.909400000000     0          
H1       H      0.773400000000     0.197000000000     0.939100000000     0          
C3       C      0.835000000000     0.120000000000     0.691400000000     0          
C4       C      0.790000000000     0.182000000000     0.777400000000     0          
C5       C      0.770500000000     0.119900000000     0.743900000000     0          
H2       H      0.734800000000     0.098300000000     0.752200000000     0          
C6       C      0.751100000000     0.151700000000     0.790400000000     0          
H3       H      0.706800000000     0.150100000000     0.833700000000     0          
C7       C      0.762700000000     0.217900000000     0.824600000000     0          
H4       H      0.741800000000     0.270600000000     0.666100000000     0          
C9       C      0.879100000000     0.153200000000     0.679300000000     0          
H5       H      0.924200000000     0.153700000000     0.636500000000     0          
C10      C      0.866500000000     0.184800000000     0.719800000000     0          
H6       H      0.903000000000     0.206200000000     0.712000000000     0          
C11      C      0.861400000000     0.086800000000     0.641500000000     0          
O4       O      0.170800000000     0.945000000000     0.662300000000     0          
O6       O      0.085400000000     0.903480000000     0.580100000000     0          
C2       C      0.236800000000     0.780900000000     0.909400000000     0          
H1       H      0.226600000000     0.803000000000     0.939100000000     0          
C3       C      0.165000000000     0.880000000000     0.691400000000     0          
C4       C      0.210000000000     0.818000000000     0.777400000000     0          
C5       C      0.229500000000     0.880100000000     0.743900000000     0          
H2       H      0.265200000000     0.901700000000     0.752200000000     0          
C6       C      0.248900000000     0.848300000000     0.790400000000     0          
H3       H      0.293200000000     0.849900000000     0.833700000000     0          
C7       C      0.237300000000     0.782100000000     0.824600000000     0          
H4       H      0.258200000000     0.729400000000     0.666100000000     0          
C9       C      0.120900000000     0.846800000000     0.679300000000     0          
H5       H      0.075800000000     0.846300000000     0.636500000000     0          
C10      C      0.133500000000     0.815200000000     0.719800000000     0          
H6       H      0.097000000000     0.793800000000     0.712000000000     0          
C11      C      0.138600000000     0.913200000000     0.641500000000     0          


