data_HERHUK

_audit_creation_method RASPA-1.0
_audit_creation_date 2020-11-2
_audit_author_name 'Rocio Bueno-Perez'

_cell_length_a    18.7781
_cell_length_b    35.2745
_cell_length_c    16.0212
_cell_angle_alpha 90
_cell_angle_beta  90
_cell_angle_gamma 90
_cell_volume      10612.3

_symmetry_cell_setting          triclinic
_symmetry_space_group_name_Hall 'P 1'
_symmetry_space_group_name_H-M  'P 1'
_symmetry_Int_Tables_number     1

_symmetry_equiv_pos_as_xyz 'x,y,z'

loop_
_atom_site_label
_atom_site_type_symbol
_atom_site_fract_x
_atom_site_fract_y
_atom_site_fract_z
_atom_site_charge
O1       O      0.631100000000     0.557590000000     0.157750000000     0          
O2       O      0.569960000000     0.600750000000     0.082610000000     0          
C3       C      0.612400000000     0.591570000000     0.139200000000     0          
C4       C      0.643500000000     0.623320000000     0.188600000000     0          
C5       C      0.616100000000     0.659470000000     0.175400000000     0          
H6       H      0.578900000000     0.663200000000     0.136000000000     0          
C7       C      0.642300000000     0.689510000000     0.218700000000     0          
H8       H      0.623000000000     0.714100000000     0.210000000000     0          
C9       C      0.697700000000     0.684460000000     0.276200000000     0          
C10      C      0.722000000000     0.648290000000     0.292100000000     0          
H11      H      0.758300000000     0.644300000000     0.332400000000     0          
C12      C      0.693600000000     0.617980000000     0.249500000000     0          
H13      H      0.708900000000     0.593000000000     0.262500000000     0          
C14      C      0.727300000000     0.718480000000     0.322600000000     0          
C15      C      0.727800000000     0.718900000000     0.408100000000     0          
H16      H      0.712300000000     0.697000000000     0.437500000000     0          
H17      H      0.734800000000     0.729100000000     0.177100000000     0          
O18      O      0.131100000000     0.057590000000     0.157750000000     0          
O19      O      0.069960000000     0.100750000000     0.082610000000     0          
C20      C      0.112400000000     0.091570000000     0.139200000000     0          
C21      C      0.143500000000     0.123320000000     0.188600000000     0          
C22      C      0.116100000000     0.159470000000     0.175400000000     0          
H23      H      0.078900000000     0.163200000000     0.136000000000     0          
C24      C      0.142300000000     0.189510000000     0.218700000000     0          
H25      H      0.123000000000     0.214100000000     0.210000000000     0          
C26      C      0.197700000000     0.184460000000     0.276200000000     0          
C27      C      0.222000000000     0.148290000000     0.292100000000     0          
H28      H      0.258300000000     0.144300000000     0.332400000000     0          
C29      C      0.193600000000     0.117980000000     0.249500000000     0          
H30      H      0.208900000000     0.093000000000     0.262500000000     0          
C31      C      0.227300000000     0.218480000000     0.322600000000     0          
C32      C      0.227800000000     0.218900000000     0.408100000000     0          
H33      H      0.212300000000     0.197000000000     0.437500000000     0          
O34      O      0.368900000000     0.442410000000     0.157750000000     0          
O35      O      0.430040000000     0.399250000000     0.082610000000     0          
C36      C      0.387600000000     0.408430000000     0.139200000000     0          
C37      C      0.356500000000     0.376680000000     0.188600000000     0          
C38      C      0.383900000000     0.340530000000     0.175400000000     0          
H39      H      0.421100000000     0.336800000000     0.136000000000     0          
C40      C      0.357700000000     0.310490000000     0.218700000000     0          
H41      H      0.377000000000     0.285900000000     0.210000000000     0          
C42      C      0.302300000000     0.315540000000     0.276200000000     0          
C43      C      0.278000000000     0.351710000000     0.292100000000     0          
H44      H      0.241700000000     0.355700000000     0.332400000000     0          
C45      C      0.306400000000     0.382020000000     0.249500000000     0          
H46      H      0.291100000000     0.407000000000     0.262500000000     0          
C47      C      0.272700000000     0.281520000000     0.322600000000     0          
C48      C      0.272200000000     0.281100000000     0.408100000000     0          
H49      H      0.287700000000     0.303000000000     0.437500000000     0          
H50      H      0.265200000000     0.270900000000     0.177100000000     0          
O51      O      0.868900000000     0.942410000000     0.157750000000     0          
O52      O      0.930040000000     0.899250000000     0.082610000000     0          
C53      C      0.887600000000     0.908430000000     0.139200000000     0          
C54      C      0.856500000000     0.876680000000     0.188600000000     0          
C55      C      0.883900000000     0.840530000000     0.175400000000     0          
H56      H      0.921100000000     0.836800000000     0.136000000000     0          
C57      C      0.857700000000     0.810490000000     0.218700000000     0          
H58      H      0.877000000000     0.785900000000     0.210000000000     0          
C59      C      0.802300000000     0.815540000000     0.276200000000     0          
C60      C      0.778000000000     0.851710000000     0.292100000000     0          
H61      H      0.741700000000     0.855700000000     0.332400000000     0          
C62      C      0.806400000000     0.882020000000     0.249500000000     0          
H63      H      0.791100000000     0.907000000000     0.262500000000     0          
C64      C      0.772700000000     0.781520000000     0.322600000000     0          
C65      C      0.772200000000     0.781100000000     0.408100000000     0          
H66      H      0.787700000000     0.803000000000     0.437500000000     0          
O67      O      0.368900000000     0.557590000000     0.842250000000     0          
O68      O      0.430040000000     0.600750000000     0.917390000000     0          
C69      C      0.387600000000     0.591570000000     0.860800000000     0          
C70      C      0.356500000000     0.623320000000     0.811400000000     0          
C71      C      0.383900000000     0.659470000000     0.824600000000     0          
H72      H      0.421100000000     0.663200000000     0.864000000000     0          
C73      C      0.357700000000     0.689510000000     0.781300000000     0          
H74      H      0.377000000000     0.714100000000     0.790000000000     0          
C75      C      0.302300000000     0.684460000000     0.723800000000     0          
C76      C      0.278000000000     0.648290000000     0.707900000000     0          
H77      H      0.241700000000     0.644300000000     0.667600000000     0          
C78      C      0.306400000000     0.617980000000     0.750500000000     0          
H79      H      0.291100000000     0.593000000000     0.737500000000     0          
C80      C      0.272700000000     0.718480000000     0.677400000000     0          
C81      C      0.272200000000     0.718900000000     0.591900000000     0          
H82      H      0.287700000000     0.697000000000     0.562500000000     0          
H83      H      0.265200000000     0.729100000000     0.822900000000     0          
O84      O      0.868900000000     0.057590000000     0.842250000000     0          
O85      O      0.930040000000     0.100750000000     0.917390000000     0          
C86      C      0.887600000000     0.091570000000     0.860800000000     0          
C87      C      0.856500000000     0.123320000000     0.811400000000     0          
C88      C      0.883900000000     0.159470000000     0.824600000000     0          
H89      H      0.921100000000     0.163200000000     0.864000000000     0          
C90      C      0.857700000000     0.189510000000     0.781300000000     0          
H91      H      0.877000000000     0.214100000000     0.790000000000     0          
C92      C      0.802300000000     0.184460000000     0.723800000000     0          
C93      C      0.778000000000     0.148290000000     0.707900000000     0          
H94      H      0.741700000000     0.144300000000     0.667600000000     0          
C95      C      0.806400000000     0.117980000000     0.750500000000     0          
H96      H      0.791100000000     0.093000000000     0.737500000000     0          
C97      C      0.772700000000     0.218480000000     0.677400000000     0          
C98      C      0.772200000000     0.218900000000     0.591900000000     0          
H99      H      0.787700000000     0.197000000000     0.562500000000     0          
O100     O      0.631100000000     0.442410000000     0.842250000000     0          
O101     O      0.569960000000     0.399250000000     0.917390000000     0          
C102     C      0.612400000000     0.408430000000     0.860800000000     0          
C103     C      0.643500000000     0.376680000000     0.811400000000     0          
C104     C      0.616100000000     0.340530000000     0.824600000000     0          
H105     H      0.578900000000     0.336800000000     0.864000000000     0          
C106     C      0.642300000000     0.310490000000     0.781300000000     0          
H107     H      0.623000000000     0.285900000000     0.790000000000     0          
C108     C      0.697700000000     0.315540000000     0.723800000000     0          
C109     C      0.722000000000     0.351710000000     0.707900000000     0          
H110     H      0.758300000000     0.355700000000     0.667600000000     0          
C111     C      0.693600000000     0.382020000000     0.750500000000     0          
H112     H      0.708900000000     0.407000000000     0.737500000000     0          
C113     C      0.727300000000     0.281520000000     0.677400000000     0          
C114     C      0.727800000000     0.281100000000     0.591900000000     0          
H115     H      0.712300000000     0.303000000000     0.562500000000     0          
H116     H      0.734800000000     0.270900000000     0.822900000000     0          
O117     O      0.131100000000     0.942410000000     0.842250000000     0          
O118     O      0.069960000000     0.899250000000     0.917390000000     0          
C119     C      0.112400000000     0.908430000000     0.860800000000     0          
C120     C      0.143500000000     0.876680000000     0.811400000000     0          
C121     C      0.116100000000     0.840530000000     0.824600000000     0          
H122     H      0.078900000000     0.836800000000     0.864000000000     0          
C123     C      0.142300000000     0.810490000000     0.781300000000     0          
H124     H      0.123000000000     0.785900000000     0.790000000000     0          
C125     C      0.197700000000     0.815540000000     0.723800000000     0          
C126     C      0.222000000000     0.851710000000     0.707900000000     0          
H127     H      0.258300000000     0.855700000000     0.667600000000     0          
C128     C      0.193600000000     0.882020000000     0.750500000000     0          
H129     H      0.208900000000     0.907000000000     0.737500000000     0          
C130     C      0.227300000000     0.781520000000     0.677400000000     0          
C131     C      0.227800000000     0.781100000000     0.591900000000     0          
H132     H      0.212300000000     0.803000000000     0.562500000000     0          
O133     O      0.368900000000     0.442410000000     0.842250000000     0          
O134     O      0.430040000000     0.399250000000     0.917390000000     0          
C135     C      0.387600000000     0.408430000000     0.860800000000     0          
C136     C      0.356500000000     0.376680000000     0.811400000000     0          
C137     C      0.383900000000     0.340530000000     0.824600000000     0          
H138     H      0.421100000000     0.336800000000     0.864000000000     0          
C139     C      0.357700000000     0.310490000000     0.781300000000     0          
H140     H      0.377000000000     0.285900000000     0.790000000000     0          
C141     C      0.302300000000     0.315540000000     0.723800000000     0          
C142     C      0.278000000000     0.351710000000     0.707900000000     0          
H143     H      0.241700000000     0.355700000000     0.667600000000     0          
C144     C      0.306400000000     0.382020000000     0.750500000000     0          
H145     H      0.291100000000     0.407000000000     0.737500000000     0          
C146     C      0.272700000000     0.281520000000     0.677400000000     0          
C147     C      0.272200000000     0.281100000000     0.591900000000     0          
H148     H      0.287700000000     0.303000000000     0.562500000000     0          
O149     O      0.868900000000     0.942410000000     0.842250000000     0          
O150     O      0.930040000000     0.899250000000     0.917390000000     0          
C151     C      0.887600000000     0.908430000000     0.860800000000     0          
C152     C      0.856500000000     0.876680000000     0.811400000000     0          
C153     C      0.883900000000     0.840530000000     0.824600000000     0          
H154     H      0.921100000000     0.836800000000     0.864000000000     0          
C155     C      0.857700000000     0.810490000000     0.781300000000     0          
H156     H      0.877000000000     0.785900000000     0.790000000000     0          
C157     C      0.802300000000     0.815540000000     0.723800000000     0          
C158     C      0.778000000000     0.851710000000     0.707900000000     0          
H159     H      0.741700000000     0.855700000000     0.667600000000     0          
C160     C      0.806400000000     0.882020000000     0.750500000000     0          
H161     H      0.791100000000     0.907000000000     0.737500000000     0          
C162     C      0.772700000000     0.781520000000     0.677400000000     0          
C163     C      0.772200000000     0.781100000000     0.591900000000     0          
H164     H      0.787700000000     0.803000000000     0.562500000000     0          
H165     H      0.765200000000     0.770900000000     0.822900000000     0          
O166     O      0.631100000000     0.557590000000     0.842250000000     0          
O167     O      0.569960000000     0.600750000000     0.917390000000     0          
C168     C      0.612400000000     0.591570000000     0.860800000000     0          
C169     C      0.643500000000     0.623320000000     0.811400000000     0          
C170     C      0.616100000000     0.659470000000     0.824600000000     0          
H171     H      0.578900000000     0.663200000000     0.864000000000     0          
C172     C      0.642300000000     0.689510000000     0.781300000000     0          
H173     H      0.623000000000     0.714100000000     0.790000000000     0          
C174     C      0.697700000000     0.684460000000     0.723800000000     0          
C175     C      0.722000000000     0.648290000000     0.707900000000     0          
H176     H      0.758300000000     0.644300000000     0.667600000000     0          
C177     C      0.693600000000     0.617980000000     0.750500000000     0          
H178     H      0.708900000000     0.593000000000     0.737500000000     0          
C179     C      0.727300000000     0.718480000000     0.677400000000     0          
C180     C      0.727800000000     0.718900000000     0.591900000000     0          
H181     H      0.712300000000     0.697000000000     0.562500000000     0          
O182     O      0.131100000000     0.057590000000     0.842250000000     0          
O183     O      0.069960000000     0.100750000000     0.917390000000     0          
C184     C      0.112400000000     0.091570000000     0.860800000000     0          
C185     C      0.143500000000     0.123320000000     0.811400000000     0          
C186     C      0.116100000000     0.159470000000     0.824600000000     0          
H187     H      0.078900000000     0.163200000000     0.864000000000     0          
C188     C      0.142300000000     0.189510000000     0.781300000000     0          
H189     H      0.123000000000     0.214100000000     0.790000000000     0          
C190     C      0.197700000000     0.184460000000     0.723800000000     0          
C191     C      0.222000000000     0.148290000000     0.707900000000     0          
H192     H      0.258300000000     0.144300000000     0.667600000000     0          
C193     C      0.193600000000     0.117980000000     0.750500000000     0          
H194     H      0.208900000000     0.093000000000     0.737500000000     0          
C195     C      0.227300000000     0.218480000000     0.677400000000     0          
C196     C      0.227800000000     0.218900000000     0.591900000000     0          
H197     H      0.212300000000     0.197000000000     0.562500000000     0          
H198     H      0.234800000000     0.229100000000     0.822900000000     0          
O199     O      0.631100000000     0.442410000000     0.157750000000     0          
O200     O      0.569960000000     0.399250000000     0.082610000000     0          
C201     C      0.612400000000     0.408430000000     0.139200000000     0          
C202     C      0.643500000000     0.376680000000     0.188600000000     0          
C203     C      0.616100000000     0.340530000000     0.175400000000     0          
H204     H      0.578900000000     0.336800000000     0.136000000000     0          
C205     C      0.642300000000     0.310490000000     0.218700000000     0          
H206     H      0.623000000000     0.285900000000     0.210000000000     0          
C207     C      0.697700000000     0.315540000000     0.276200000000     0          
C208     C      0.722000000000     0.351710000000     0.292100000000     0          
H209     H      0.758300000000     0.355700000000     0.332400000000     0          
C210     C      0.693600000000     0.382020000000     0.249500000000     0          
H211     H      0.708900000000     0.407000000000     0.262500000000     0          
C212     C      0.727300000000     0.281520000000     0.322600000000     0          
C213     C      0.727800000000     0.281100000000     0.408100000000     0          
H214     H      0.712300000000     0.303000000000     0.437500000000     0          
O215     O      0.131100000000     0.942410000000     0.157750000000     0          
O216     O      0.069960000000     0.899250000000     0.082610000000     0          
C217     C      0.112400000000     0.908430000000     0.139200000000     0          
C218     C      0.143500000000     0.876680000000     0.188600000000     0          
C219     C      0.116100000000     0.840530000000     0.175400000000     0          
H220     H      0.078900000000     0.836800000000     0.136000000000     0          
C221     C      0.142300000000     0.810490000000     0.218700000000     0          
H222     H      0.123000000000     0.785900000000     0.210000000000     0          
C223     C      0.197700000000     0.815540000000     0.276200000000     0          
C224     C      0.222000000000     0.851710000000     0.292100000000     0          
H225     H      0.258300000000     0.855700000000     0.332400000000     0          
C226     C      0.193600000000     0.882020000000     0.249500000000     0          
H227     H      0.208900000000     0.907000000000     0.262500000000     0          
C228     C      0.227300000000     0.781520000000     0.322600000000     0          
C229     C      0.227800000000     0.781100000000     0.408100000000     0          
H230     H      0.212300000000     0.803000000000     0.437500000000     0          
H231     H      0.234800000000     0.770900000000     0.177100000000     0          
O232     O      0.368900000000     0.557590000000     0.157750000000     0          
O233     O      0.430040000000     0.600750000000     0.082610000000     0          
C234     C      0.387600000000     0.591570000000     0.139200000000     0          
C235     C      0.356500000000     0.623320000000     0.188600000000     0          
C236     C      0.383900000000     0.659470000000     0.175400000000     0          
H237     H      0.421100000000     0.663200000000     0.136000000000     0          
C238     C      0.357700000000     0.689510000000     0.218700000000     0          
H239     H      0.377000000000     0.714100000000     0.210000000000     0          
C240     C      0.302300000000     0.684460000000     0.276200000000     0          
C241     C      0.278000000000     0.648290000000     0.292100000000     0          
H242     H      0.241700000000     0.644300000000     0.332400000000     0          
C243     C      0.306400000000     0.617980000000     0.249500000000     0          
H244     H      0.291100000000     0.593000000000     0.262500000000     0          
C245     C      0.272700000000     0.718480000000     0.322600000000     0          
C246     C      0.272200000000     0.718900000000     0.408100000000     0          
H247     H      0.287700000000     0.697000000000     0.437500000000     0          
O248     O      0.868900000000     0.057590000000     0.157750000000     0          
O249     O      0.930040000000     0.100750000000     0.082610000000     0          
C250     C      0.887600000000     0.091570000000     0.139200000000     0          
C251     C      0.856500000000     0.123320000000     0.188600000000     0          
C252     C      0.883900000000     0.159470000000     0.175400000000     0          
H253     H      0.921100000000     0.163200000000     0.136000000000     0          
C254     C      0.857700000000     0.189510000000     0.218700000000     0          
H255     H      0.877000000000     0.214100000000     0.210000000000     0          
C256     C      0.802300000000     0.184460000000     0.276200000000     0          
C257     C      0.778000000000     0.148290000000     0.292100000000     0          
H258     H      0.741700000000     0.144300000000     0.332400000000     0          
C259     C      0.806400000000     0.117980000000     0.249500000000     0          
H260     H      0.791100000000     0.093000000000     0.262500000000     0          
C261     C      0.772700000000     0.218480000000     0.322600000000     0          
C262     C      0.772200000000     0.218900000000     0.408100000000     0          
H263     H      0.787700000000     0.197000000000     0.437500000000     0          
H264     H      0.765200000000     0.229100000000     0.177100000000     0          
Zr265    Zr     0.500000000000     0.568830000000     0.000000000000     0          
Zr266    Zr     0.000000000000     0.068830000000     0.000000000000     0          
Zr267    Zr     0.500000000000     0.431170000000     0.000000000000     0          
Zr268    Zr     0.000000000000     0.931170000000     0.000000000000     0          
Zr269    Zr     0.594190000000     0.500000000000     0.110630000000     0          
Zr270    Zr     0.094190000000     0.000000000000     0.110630000000     0          
Zr271    Zr     0.405810000000     0.500000000000     0.110630000000     0          
Zr272    Zr     0.905810000000     0.000000000000     0.110630000000     0          
Zr273    Zr     0.405810000000     0.500000000000     0.889370000000     0          
Zr274    Zr     0.905810000000     0.000000000000     0.889370000000     0          
Zr275    Zr     0.594190000000     0.500000000000     0.889370000000     0          
Zr276    Zr     0.094190000000     0.000000000000     0.889370000000     0          
O277     O      0.750000000000     0.750000000000     0.194500000000     0          
C278     C      0.750000000000     0.750000000000     0.279300000000     0          
C279     C      0.750000000000     0.750000000000     0.452100000000     0          
O280     O      0.250000000000     0.250000000000     0.194500000000     0          
C281     C      0.250000000000     0.250000000000     0.279300000000     0          
C282     C      0.250000000000     0.250000000000     0.452100000000     0          
O283     O      0.250000000000     0.750000000000     0.805500000000     0          
C284     C      0.250000000000     0.750000000000     0.720700000000     0          
C285     C      0.250000000000     0.750000000000     0.547900000000     0          
O286     O      0.750000000000     0.250000000000     0.805500000000     0          
C287     C      0.750000000000     0.250000000000     0.720700000000     0          
C288     C      0.750000000000     0.250000000000     0.547900000000     0          
O289     O      0.250000000000     0.250000000000     0.805500000000     0          
C290     C      0.250000000000     0.250000000000     0.720700000000     0          
C291     C      0.250000000000     0.250000000000     0.547900000000     0          
O292     O      0.750000000000     0.750000000000     0.805500000000     0          
C293     C      0.750000000000     0.750000000000     0.720700000000     0          
C294     C      0.750000000000     0.750000000000     0.547900000000     0          
O295     O      0.750000000000     0.250000000000     0.194500000000     0          
C296     C      0.750000000000     0.250000000000     0.279300000000     0          
C297     C      0.750000000000     0.250000000000     0.452100000000     0          
O298     O      0.250000000000     0.750000000000     0.194500000000     0          
C299     C      0.250000000000     0.750000000000     0.279300000000     0          
C300     C      0.250000000000     0.750000000000     0.452100000000     0          
O301     O      0.500000000000     0.533140000000     0.110400000000     0          
O302     O      0.000000000000     0.033140000000     0.110400000000     0          
O303     O      0.500000000000     0.466860000000     0.110400000000     0          
O304     O      0.000000000000     0.966860000000     0.110400000000     0          
O305     O      0.500000000000     0.533140000000     0.889600000000     0          
O306     O      0.000000000000     0.033140000000     0.889600000000     0          
O307     O      0.500000000000     0.466860000000     0.889600000000     0          
O308     O      0.000000000000     0.966860000000     0.889600000000     0          
O309     O      0.593900000000     0.533420000000     0.000000000000     0          
O310     O      0.093900000000     0.033420000000     0.000000000000     0          
O311     O      0.406100000000     0.466580000000     0.000000000000     0          
O312     O      0.906100000000     0.966580000000     0.000000000000     0          
O313     O      0.406100000000     0.533420000000     0.000000000000     0          
O314     O      0.906100000000     0.033420000000     0.000000000000     0          
O315     O      0.593900000000     0.466580000000     0.000000000000     0          
O316     O      0.093900000000     0.966580000000     0.000000000000     0          


