data_HERHOE

_audit_creation_method RASPA-1.0
_audit_creation_date 2020-11-2
_audit_author_name 'Rocio Bueno-Perez'

_cell_length_a    35.1569
_cell_length_b    20.1235
_cell_length_c    15.6584
_cell_angle_alpha 90
_cell_angle_beta  90
_cell_angle_gamma 90
_cell_volume      11078

_symmetry_cell_setting          triclinic
_symmetry_space_group_name_Hall 'P 1'
_symmetry_space_group_name_H-M  'P 1'
_symmetry_Int_Tables_number     1

_symmetry_equiv_pos_as_xyz 'x,y,z'

loop_
_atom_site_label
_atom_site_type_symbol
_atom_site_fract_x
_atom_site_fract_y
_atom_site_fract_z
_atom_site_charge
O1       O      0.398760000000     0.434290000000     0.415810000000     0          
O2       O      0.441820000000     0.376550000000     0.340490000000     0          
C3       C      0.408280000000     0.393600000000     0.359200000000     0          
C4       C      0.314150000000     0.306400000000     0.227400000000     0          
C5       C      0.280860000000     0.276100000000     0.182300000000     0          
C6       C      0.376130000000     0.361800000000     0.311000000000     0          
C7       C      0.381420000000     0.313300000000     0.255000000000     0          
H8       H      0.406600000000     0.298400000000     0.243600000000     0          
C9       C      0.280590000000     0.275000000000     0.094500000000     0          
H10      H      0.302000000000     0.291800000000     0.064600000000     0          
C11      C      0.309210000000     0.357300000000     0.282800000000     0          
H12      H      0.284300000000     0.373700000000     0.292900000000     0          
C13      C      0.350810000000     0.283500000000     0.212100000000     0          
H14      H      0.355100000000     0.248100000000     0.173100000000     0          
C15      C      0.339620000000     0.386000000000     0.325000000000     0          
H16      H      0.335600000000     0.422000000000     0.363300000000     0          
O17      O      0.898760000000     0.934290000000     0.415810000000     0          
O18      O      0.941820000000     0.876550000000     0.340490000000     0          
C19      C      0.908280000000     0.893600000000     0.359200000000     0          
C20      C      0.814150000000     0.806400000000     0.227400000000     0          
C21      C      0.780860000000     0.776100000000     0.182300000000     0          
C22      C      0.876130000000     0.861800000000     0.311000000000     0          
C23      C      0.881420000000     0.813300000000     0.255000000000     0          
H24      H      0.906600000000     0.798400000000     0.243600000000     0          
C25      C      0.780590000000     0.775000000000     0.094500000000     0          
H26      H      0.802000000000     0.791800000000     0.064600000000     0          
C27      C      0.809210000000     0.857300000000     0.282800000000     0          
H28      H      0.784300000000     0.873700000000     0.292900000000     0          
C29      C      0.850810000000     0.783500000000     0.212100000000     0          
H30      H      0.855100000000     0.748100000000     0.173100000000     0          
C31      C      0.839620000000     0.886000000000     0.325000000000     0          
H32      H      0.835600000000     0.922000000000     0.363300000000     0          
O33      O      0.601240000000     0.565710000000     0.415810000000     0          
O34      O      0.558180000000     0.623450000000     0.340490000000     0          
C35      C      0.591720000000     0.606400000000     0.359200000000     0          
C36      C      0.685850000000     0.693600000000     0.227400000000     0          
C37      C      0.719140000000     0.723900000000     0.182300000000     0          
C38      C      0.623870000000     0.638200000000     0.311000000000     0          
C39      C      0.618580000000     0.686700000000     0.255000000000     0          
H40      H      0.593400000000     0.701600000000     0.243600000000     0          
C41      C      0.719410000000     0.725000000000     0.094500000000     0          
H42      H      0.698000000000     0.708200000000     0.064600000000     0          
C43      C      0.690790000000     0.642700000000     0.282800000000     0          
H44      H      0.715700000000     0.626300000000     0.292900000000     0          
C45      C      0.649190000000     0.716500000000     0.212100000000     0          
H46      H      0.644900000000     0.751900000000     0.173100000000     0          
C47      C      0.660380000000     0.614000000000     0.325000000000     0          
H48      H      0.664400000000     0.578000000000     0.363300000000     0          
O49      O      0.101240000000     0.065710000000     0.415810000000     0          
O50      O      0.058180000000     0.123450000000     0.340490000000     0          
C51      C      0.091720000000     0.106400000000     0.359200000000     0          
C52      C      0.185850000000     0.193600000000     0.227400000000     0          
C53      C      0.219140000000     0.223900000000     0.182300000000     0          
C54      C      0.123870000000     0.138200000000     0.311000000000     0          
C55      C      0.118580000000     0.186700000000     0.255000000000     0          
H56      H      0.093400000000     0.201600000000     0.243600000000     0          
C57      C      0.219410000000     0.225000000000     0.094500000000     0          
H58      H      0.198000000000     0.208200000000     0.064600000000     0          
C59      C      0.190790000000     0.142700000000     0.282800000000     0          
H60      H      0.215700000000     0.126300000000     0.292900000000     0          
C61      C      0.149190000000     0.216500000000     0.212100000000     0          
H62      H      0.144900000000     0.251900000000     0.173100000000     0          
C63      C      0.160380000000     0.114000000000     0.325000000000     0          
H64      H      0.164400000000     0.078000000000     0.363300000000     0          
O65      O      0.601240000000     0.434290000000     0.584190000000     0          
O66      O      0.558180000000     0.376550000000     0.659510000000     0          
C67      C      0.591720000000     0.393600000000     0.640800000000     0          
C68      C      0.685850000000     0.306400000000     0.772600000000     0          
C69      C      0.719140000000     0.276100000000     0.817700000000     0          
C70      C      0.623870000000     0.361800000000     0.689000000000     0          
C71      C      0.618580000000     0.313300000000     0.745000000000     0          
H72      H      0.593400000000     0.298400000000     0.756400000000     0          
C73      C      0.719410000000     0.275000000000     0.905500000000     0          
H74      H      0.698000000000     0.291800000000     0.935400000000     0          
C75      C      0.690790000000     0.357300000000     0.717200000000     0          
H76      H      0.715700000000     0.373700000000     0.707100000000     0          
C77      C      0.649190000000     0.283500000000     0.787900000000     0          
H78      H      0.644900000000     0.248100000000     0.826900000000     0          
C79      C      0.660380000000     0.386000000000     0.675000000000     0          
H80      H      0.664400000000     0.422000000000     0.636700000000     0          
O81      O      0.101240000000     0.934290000000     0.584190000000     0          
O82      O      0.058180000000     0.876550000000     0.659510000000     0          
C83      C      0.091720000000     0.893600000000     0.640800000000     0          
C84      C      0.185850000000     0.806400000000     0.772600000000     0          
C85      C      0.219140000000     0.776100000000     0.817700000000     0          
C86      C      0.123870000000     0.861800000000     0.689000000000     0          
C87      C      0.118580000000     0.813300000000     0.745000000000     0          
H88      H      0.093400000000     0.798400000000     0.756400000000     0          
C89      C      0.219410000000     0.775000000000     0.905500000000     0          
H90      H      0.198000000000     0.791800000000     0.935400000000     0          
C91      C      0.190790000000     0.857300000000     0.717200000000     0          
H92      H      0.215700000000     0.873700000000     0.707100000000     0          
C93      C      0.149190000000     0.783500000000     0.787900000000     0          
H94      H      0.144900000000     0.748100000000     0.826900000000     0          
C95      C      0.160380000000     0.886000000000     0.675000000000     0          
H96      H      0.164400000000     0.922000000000     0.636700000000     0          
O97      O      0.398760000000     0.565710000000     0.584190000000     0          
O98      O      0.441820000000     0.623450000000     0.659510000000     0          
C99      C      0.408280000000     0.606400000000     0.640800000000     0          
C100     C      0.314150000000     0.693600000000     0.772600000000     0          
C101     C      0.280860000000     0.723900000000     0.817700000000     0          
C102     C      0.376130000000     0.638200000000     0.689000000000     0          
C103     C      0.381420000000     0.686700000000     0.745000000000     0          
H104     H      0.406600000000     0.701600000000     0.756400000000     0          
C105     C      0.280590000000     0.725000000000     0.905500000000     0          
H106     H      0.302000000000     0.708200000000     0.935400000000     0          
C107     C      0.309210000000     0.642700000000     0.717200000000     0          
H108     H      0.284300000000     0.626300000000     0.707100000000     0          
C109     C      0.350810000000     0.716500000000     0.787900000000     0          
H110     H      0.355100000000     0.751900000000     0.826900000000     0          
C111     C      0.339620000000     0.614000000000     0.675000000000     0          
H112     H      0.335600000000     0.578000000000     0.636700000000     0          
O113     O      0.898760000000     0.065710000000     0.584190000000     0          
O114     O      0.941820000000     0.123450000000     0.659510000000     0          
C115     C      0.908280000000     0.106400000000     0.640800000000     0          
C116     C      0.814150000000     0.193600000000     0.772600000000     0          
C117     C      0.780860000000     0.223900000000     0.817700000000     0          
C118     C      0.876130000000     0.138200000000     0.689000000000     0          
C119     C      0.881420000000     0.186700000000     0.745000000000     0          
H120     H      0.906600000000     0.201600000000     0.756400000000     0          
C121     C      0.780590000000     0.225000000000     0.905500000000     0          
H122     H      0.802000000000     0.208200000000     0.935400000000     0          
C123     C      0.809210000000     0.142700000000     0.717200000000     0          
H124     H      0.784300000000     0.126300000000     0.707100000000     0          
C125     C      0.850810000000     0.216500000000     0.787900000000     0          
H126     H      0.855100000000     0.251900000000     0.826900000000     0          
C127     C      0.839620000000     0.114000000000     0.675000000000     0          
H128     H      0.835600000000     0.078000000000     0.636700000000     0          
O129     O      0.601240000000     0.565710000000     0.584190000000     0          
O130     O      0.558180000000     0.623450000000     0.659510000000     0          
C131     C      0.591720000000     0.606400000000     0.640800000000     0          
C132     C      0.685850000000     0.693600000000     0.772600000000     0          
C133     C      0.719140000000     0.723900000000     0.817700000000     0          
C134     C      0.623870000000     0.638200000000     0.689000000000     0          
C135     C      0.618580000000     0.686700000000     0.745000000000     0          
H136     H      0.593400000000     0.701600000000     0.756400000000     0          
C137     C      0.719410000000     0.725000000000     0.905500000000     0          
H138     H      0.698000000000     0.708200000000     0.935400000000     0          
C139     C      0.690790000000     0.642700000000     0.717200000000     0          
H140     H      0.715700000000     0.626300000000     0.707100000000     0          
C141     C      0.649190000000     0.716500000000     0.787900000000     0          
H142     H      0.644900000000     0.751900000000     0.826900000000     0          
C143     C      0.660380000000     0.614000000000     0.675000000000     0          
H144     H      0.664400000000     0.578000000000     0.636700000000     0          
O145     O      0.101240000000     0.065710000000     0.584190000000     0          
O146     O      0.058180000000     0.123450000000     0.659510000000     0          
C147     C      0.091720000000     0.106400000000     0.640800000000     0          
C148     C      0.185850000000     0.193600000000     0.772600000000     0          
C149     C      0.219140000000     0.223900000000     0.817700000000     0          
C150     C      0.123870000000     0.138200000000     0.689000000000     0          
C151     C      0.118580000000     0.186700000000     0.745000000000     0          
H152     H      0.093400000000     0.201600000000     0.756400000000     0          
C153     C      0.219410000000     0.225000000000     0.905500000000     0          
H154     H      0.198000000000     0.208200000000     0.935400000000     0          
C155     C      0.190790000000     0.142700000000     0.717200000000     0          
H156     H      0.215700000000     0.126300000000     0.707100000000     0          
C157     C      0.149190000000     0.216500000000     0.787900000000     0          
H158     H      0.144900000000     0.251900000000     0.826900000000     0          
C159     C      0.160380000000     0.114000000000     0.675000000000     0          
H160     H      0.164400000000     0.078000000000     0.636700000000     0          
O161     O      0.398760000000     0.434290000000     0.584190000000     0          
O162     O      0.441820000000     0.376550000000     0.659510000000     0          
C163     C      0.408280000000     0.393600000000     0.640800000000     0          
C164     C      0.314150000000     0.306400000000     0.772600000000     0          
C165     C      0.280860000000     0.276100000000     0.817700000000     0          
C166     C      0.376130000000     0.361800000000     0.689000000000     0          
C167     C      0.381420000000     0.313300000000     0.745000000000     0          
H168     H      0.406600000000     0.298400000000     0.756400000000     0          
C169     C      0.280590000000     0.275000000000     0.905500000000     0          
H170     H      0.302000000000     0.291800000000     0.935400000000     0          
C171     C      0.309210000000     0.357300000000     0.717200000000     0          
H172     H      0.284300000000     0.373700000000     0.707100000000     0          
C173     C      0.350810000000     0.283500000000     0.787900000000     0          
H174     H      0.355100000000     0.248100000000     0.826900000000     0          
C175     C      0.339620000000     0.386000000000     0.675000000000     0          
H176     H      0.335600000000     0.422000000000     0.636700000000     0          
O177     O      0.898760000000     0.934290000000     0.584190000000     0          
O178     O      0.941820000000     0.876550000000     0.659510000000     0          
C179     C      0.908280000000     0.893600000000     0.640800000000     0          
C180     C      0.814150000000     0.806400000000     0.772600000000     0          
C181     C      0.780860000000     0.776100000000     0.817700000000     0          
C182     C      0.876130000000     0.861800000000     0.689000000000     0          
C183     C      0.881420000000     0.813300000000     0.745000000000     0          
H184     H      0.906600000000     0.798400000000     0.756400000000     0          
C185     C      0.780590000000     0.775000000000     0.905500000000     0          
H186     H      0.802000000000     0.791800000000     0.935400000000     0          
C187     C      0.809210000000     0.857300000000     0.717200000000     0          
H188     H      0.784300000000     0.873700000000     0.707100000000     0          
C189     C      0.850810000000     0.783500000000     0.787900000000     0          
H190     H      0.855100000000     0.748100000000     0.826900000000     0          
C191     C      0.839620000000     0.886000000000     0.675000000000     0          
H192     H      0.835600000000     0.922000000000     0.636700000000     0          
O193     O      0.398760000000     0.565710000000     0.415810000000     0          
O194     O      0.441820000000     0.623450000000     0.340490000000     0          
C195     C      0.408280000000     0.606400000000     0.359200000000     0          
C196     C      0.314150000000     0.693600000000     0.227400000000     0          
C197     C      0.280860000000     0.723900000000     0.182300000000     0          
C198     C      0.376130000000     0.638200000000     0.311000000000     0          
C199     C      0.381420000000     0.686700000000     0.255000000000     0          
H200     H      0.406600000000     0.701600000000     0.243600000000     0          
C201     C      0.280590000000     0.725000000000     0.094500000000     0          
H202     H      0.302000000000     0.708200000000     0.064600000000     0          
C203     C      0.309210000000     0.642700000000     0.282800000000     0          
H204     H      0.284300000000     0.626300000000     0.292900000000     0          
C205     C      0.350810000000     0.716500000000     0.212100000000     0          
H206     H      0.355100000000     0.751900000000     0.173100000000     0          
C207     C      0.339620000000     0.614000000000     0.325000000000     0          
H208     H      0.335600000000     0.578000000000     0.363300000000     0          
O209     O      0.898760000000     0.065710000000     0.415810000000     0          
O210     O      0.941820000000     0.123450000000     0.340490000000     0          
C211     C      0.908280000000     0.106400000000     0.359200000000     0          
C212     C      0.814150000000     0.193600000000     0.227400000000     0          
C213     C      0.780860000000     0.223900000000     0.182300000000     0          
C214     C      0.876130000000     0.138200000000     0.311000000000     0          
C215     C      0.881420000000     0.186700000000     0.255000000000     0          
H216     H      0.906600000000     0.201600000000     0.243600000000     0          
C217     C      0.780590000000     0.225000000000     0.094500000000     0          
H218     H      0.802000000000     0.208200000000     0.064600000000     0          
C219     C      0.809210000000     0.142700000000     0.282800000000     0          
H220     H      0.784300000000     0.126300000000     0.292900000000     0          
C221     C      0.850810000000     0.216500000000     0.212100000000     0          
H222     H      0.855100000000     0.251900000000     0.173100000000     0          
C223     C      0.839620000000     0.114000000000     0.325000000000     0          
H224     H      0.835600000000     0.078000000000     0.363300000000     0          
O225     O      0.601240000000     0.434290000000     0.415810000000     0          
O226     O      0.558180000000     0.376550000000     0.340490000000     0          
C227     C      0.591720000000     0.393600000000     0.359200000000     0          
C228     C      0.685850000000     0.306400000000     0.227400000000     0          
C229     C      0.719140000000     0.276100000000     0.182300000000     0          
C230     C      0.623870000000     0.361800000000     0.311000000000     0          
C231     C      0.618580000000     0.313300000000     0.255000000000     0          
H232     H      0.593400000000     0.298400000000     0.243600000000     0          
C233     C      0.719410000000     0.275000000000     0.094500000000     0          
H234     H      0.698000000000     0.291800000000     0.064600000000     0          
C235     C      0.690790000000     0.357300000000     0.282800000000     0          
H236     H      0.715700000000     0.373700000000     0.292900000000     0          
C237     C      0.649190000000     0.283500000000     0.212100000000     0          
H238     H      0.644900000000     0.248100000000     0.173100000000     0          
C239     C      0.660380000000     0.386000000000     0.325000000000     0          
H240     H      0.664400000000     0.422000000000     0.363300000000     0          
O241     O      0.101240000000     0.934290000000     0.415810000000     0          
O242     O      0.058180000000     0.876550000000     0.340490000000     0          
C243     C      0.091720000000     0.893600000000     0.359200000000     0          
C244     C      0.185850000000     0.806400000000     0.227400000000     0          
C245     C      0.219140000000     0.776100000000     0.182300000000     0          
C246     C      0.123870000000     0.861800000000     0.311000000000     0          
C247     C      0.118580000000     0.813300000000     0.255000000000     0          
H248     H      0.093400000000     0.798400000000     0.243600000000     0          
C249     C      0.219410000000     0.775000000000     0.094500000000     0          
H250     H      0.198000000000     0.791800000000     0.064600000000     0          
C251     C      0.190790000000     0.857300000000     0.282800000000     0          
H252     H      0.215700000000     0.873700000000     0.292900000000     0          
C253     C      0.149190000000     0.783500000000     0.212100000000     0          
H254     H      0.144900000000     0.748100000000     0.173100000000     0          
C255     C      0.160380000000     0.886000000000     0.325000000000     0          
H256     H      0.164400000000     0.922000000000     0.363300000000     0          
Zr257    Zr     0.430910000000     0.500000000000     0.500000000000     0          
Zr258    Zr     0.930910000000     0.000000000000     0.500000000000     0          
Zr259    Zr     0.569090000000     0.500000000000     0.500000000000     0          
Zr260    Zr     0.069090000000     0.000000000000     0.500000000000     0          
Zr261    Zr     0.500000000000     0.588300000000     0.613240000000     0          
Zr262    Zr     0.000000000000     0.088300000000     0.613240000000     0          
Zr263    Zr     0.500000000000     0.411700000000     0.613240000000     0          
Zr264    Zr     0.000000000000     0.911700000000     0.613240000000     0          
Zr265    Zr     0.500000000000     0.588300000000     0.386760000000     0          
Zr266    Zr     0.000000000000     0.088300000000     0.386760000000     0          
Zr267    Zr     0.500000000000     0.411700000000     0.386760000000     0          
Zr268    Zr     0.000000000000     0.911700000000     0.386760000000     0          
O269     O      0.466030000000     0.589900000000     0.500000000000     0          
O270     O      0.966030000000     0.089900000000     0.500000000000     0          
O271     O      0.533970000000     0.410100000000     0.500000000000     0          
O272     O      0.033970000000     0.910100000000     0.500000000000     0          
O273     O      0.533970000000     0.589900000000     0.500000000000     0          
O274     O      0.033970000000     0.089900000000     0.500000000000     0          
O275     O      0.466030000000     0.410100000000     0.500000000000     0          
O276     O      0.966030000000     0.910100000000     0.500000000000     0          
O277     O      0.466300000000     0.500000000000     0.614200000000     0          
O278     O      0.966300000000     0.000000000000     0.614200000000     0          
O279     O      0.533700000000     0.500000000000     0.614200000000     0          
O280     O      0.033700000000     0.000000000000     0.614200000000     0          
O281     O      0.533700000000     0.500000000000     0.385800000000     0          
O282     O      0.033700000000     0.000000000000     0.385800000000     0          
O283     O      0.466300000000     0.500000000000     0.385800000000     0          
O284     O      0.966300000000     0.000000000000     0.385800000000     0          
C285     C      0.250000000000     0.250000000000     0.228400000000     0          
C286     C      0.250000000000     0.250000000000     0.047600000000     0          
N287     N      0.250000000000     0.250000000000     0.317600000000     0          
C288     C      0.750000000000     0.750000000000     0.228400000000     0          
C289     C      0.750000000000     0.750000000000     0.047600000000     0          
N290     N      0.750000000000     0.750000000000     0.317600000000     0          
C291     C      0.750000000000     0.250000000000     0.771600000000     0          
C292     C      0.750000000000     0.250000000000     0.952400000000     0          
N293     N      0.750000000000     0.250000000000     0.682400000000     0          
C294     C      0.250000000000     0.750000000000     0.771600000000     0          
C295     C      0.250000000000     0.750000000000     0.952400000000     0          
N296     N      0.250000000000     0.750000000000     0.682400000000     0          
C297     C      0.750000000000     0.750000000000     0.771600000000     0          
C298     C      0.750000000000     0.750000000000     0.952400000000     0          
N299     N      0.750000000000     0.750000000000     0.682400000000     0          
C300     C      0.250000000000     0.250000000000     0.771600000000     0          
C301     C      0.250000000000     0.250000000000     0.952400000000     0          
N302     N      0.250000000000     0.250000000000     0.682400000000     0          
C303     C      0.250000000000     0.750000000000     0.228400000000     0          
C304     C      0.250000000000     0.750000000000     0.047600000000     0          
N305     N      0.250000000000     0.750000000000     0.317600000000     0          
C306     C      0.750000000000     0.250000000000     0.228400000000     0          
C307     C      0.750000000000     0.250000000000     0.047600000000     0          
N308     N      0.750000000000     0.250000000000     0.317600000000     0          
H309     H      0.224220000000     0.776000000000     0.658770000000     0          
H310     H      0.250000000000     0.698000000000     0.658770000000     0          
H311     H      0.224220000000     0.224000000000     0.341230000000     0          
H312     H      0.250000000000     0.302000000000     0.341230000000     0          
H313     H      0.724220000000     0.724000000000     0.341230000000     0          
H314     H      0.750000000000     0.802000000000     0.341230000000     0          
H315     H      0.724220000000     0.276000000000     0.658770000000     0          
H316     H      0.750000000000     0.198000000000     0.658770000000     0          
H317     H      0.724220000000     0.776000000000     0.658770000000     0          
H318     H      0.750000000000     0.698000000000     0.658770000000     0          
H319     H      0.224220000000     0.724000000000     0.341230000000     0          
H320     H      0.250000000000     0.802000000000     0.341230000000     0          
H321     H      0.724220000000     0.224000000000     0.341230000000     0          
H322     H      0.750000000000     0.302000000000     0.341230000000     0          


