data_HERJOG

_audit_creation_method RASPA-1.0
_audit_creation_date 2020-11-23
_audit_author_name 'Rocio Bueno-Perez'

_cell_length_a    24.2719
_cell_length_b    24.2719
_cell_length_c    15.096
_cell_angle_alpha 90
_cell_angle_beta  90
_cell_angle_gamma 90
_cell_volume      8893.43

_symmetry_cell_setting          tetragonal
_symmetry_space_group_name_Hall 'P 1'
_symmetry_space_group_name_H-M  'P 1'
_symmetry_Int_Tables_number     1

_symmetry_equiv_pos_as_xyz 'x,y,z'

loop_
_atom_site_label
_atom_site_type_symbol
_atom_site_fract_x
_atom_site_fract_y
_atom_site_fract_z
_atom_site_charge
O1       O      0.444930000000     0.852920000000     0.412590000000     0          
O3       O      0.397310000000     0.917010000000     0.337900000000     0          
C1       C      0.407250000000     0.867950000000     0.361500000000     0          
C2       C      0.369650000000     0.824730000000     0.325000000000     0          
C3       C      0.372500000000     0.771270000000     0.358700000000     0          
H1       H      0.398900000000     0.762700000000     0.403000000000     0          
C4       C      0.297000000000     0.744330000000     0.266400000000     0          
C5       C      0.337100000000     0.730500000000     0.328200000000     0          
C6       C      0.330700000000     0.837400000000     0.265500000000     0          
H2       H      0.327200000000     0.874200000000     0.245200000000     0          
C7       C      0.294800000000     0.796300000000     0.232600000000     0          
H3       H      0.269200000000     0.804900000000     0.187000000000     0          
C8       C      0.341400000000     0.674100000000     0.363600000000     0          
H4       H      0.372500000000     0.672000000000     0.404900000000     0          
H5       H      0.347300000000     0.648200000000     0.314800000000     0          
H6       H      0.307300000000     0.664500000000     0.394700000000     0          
Zr1      Zr     0.500000000000     0.898850000000     0.500000000000     0          
Br1      Br     0.500000000000     0.700600000000     0.500000000000     0          
Zr2      Zr     0.572810000000     0.000000000000     0.617150000000     0          
O5       O      0.569200000000     0.000000000000     0.762300000000     0          
O6       O      0.664030000000     0.000000000000     0.610400000000     0          
O2       O      0.500000000000     0.950690000000     0.618000000000     0          
Br2      Br     0.500000000000     0.671700000000     0.348200000000     0          
O4       O      0.572900000000     0.951200000000     0.500000000000     0          
O1       O      0.147080000000     0.444930000000     0.912590000000     0          
O3       O      0.082990000000     0.397310000000     0.837900000000     0          
C1       C      0.132050000000     0.407250000000     0.861500000000     0          
C2       C      0.175270000000     0.369650000000     0.825000000000     0          
C3       C      0.228730000000     0.372500000000     0.858700000000     0          
H1       H      0.237300000000     0.398900000000     0.903000000000     0          
C4       C      0.255670000000     0.297000000000     0.766400000000     0          
C5       C      0.269500000000     0.337100000000     0.828200000000     0          
C6       C      0.162600000000     0.330700000000     0.765500000000     0          
H2       H      0.125800000000     0.327200000000     0.745200000000     0          
C7       C      0.203700000000     0.294800000000     0.732600000000     0          
H3       H      0.195100000000     0.269200000000     0.687000000000     0          
C8       C      0.325900000000     0.341400000000     0.863600000000     0          
H4       H      0.328000000000     0.372500000000     0.904900000000     0          
H5       H      0.351800000000     0.347300000000     0.814800000000     0          
H6       H      0.335500000000     0.307300000000     0.894700000000     0          
Zr1      Zr     0.101150000000     0.500000000000     0.000000000000     0          
Br1      Br     0.299400000000     0.500000000000     0.000000000000     0          
Zr2      Zr     0.000000000000     0.572810000000     0.117150000000     0          
O5       O      0.000000000000     0.569200000000     0.262300000000     0          
O6       O      0.000000000000     0.664030000000     0.110400000000     0          
O2       O      0.049310000000     0.500000000000     0.118000000000     0          
Br2      Br     0.328300000000     0.500000000000     0.848200000000     0          
O4       O      0.048800000000     0.572900000000     0.000000000000     0          
O1       O      0.555070000000     0.147080000000     0.412590000000     0          
O3       O      0.602690000000     0.082990000000     0.337900000000     0          
C1       C      0.592750000000     0.132050000000     0.361500000000     0          
C2       C      0.630350000000     0.175270000000     0.325000000000     0          
C3       C      0.627500000000     0.228730000000     0.358700000000     0          
H1       H      0.601100000000     0.237300000000     0.403000000000     0          
C4       C      0.703000000000     0.255670000000     0.266400000000     0          
C5       C      0.662900000000     0.269500000000     0.328200000000     0          
C6       C      0.669300000000     0.162600000000     0.265500000000     0          
H2       H      0.672800000000     0.125800000000     0.245200000000     0          
C7       C      0.705200000000     0.203700000000     0.232600000000     0          
H3       H      0.730800000000     0.195100000000     0.187000000000     0          
C8       C      0.658600000000     0.325900000000     0.363600000000     0          
H4       H      0.627500000000     0.328000000000     0.404900000000     0          
H5       H      0.652700000000     0.351800000000     0.314800000000     0          
H6       H      0.692700000000     0.335500000000     0.394700000000     0          
Zr1      Zr     0.500000000000     0.101150000000     0.500000000000     0          
Br1      Br     0.500000000000     0.299400000000     0.500000000000     0          
Zr2      Zr     0.427190000000     0.000000000000     0.617150000000     0          
O5       O      0.430800000000     0.000000000000     0.762300000000     0          
O6       O      0.335970000000     0.000000000000     0.610400000000     0          
O2       O      0.500000000000     0.049310000000     0.618000000000     0          
Br2      Br     0.500000000000     0.328300000000     0.348200000000     0          
O4       O      0.427100000000     0.048800000000     0.500000000000     0          
O1       O      0.852920000000     0.555070000000     0.912590000000     0          
O3       O      0.917010000000     0.602690000000     0.837900000000     0          
C1       C      0.867950000000     0.592750000000     0.861500000000     0          
C2       C      0.824730000000     0.630350000000     0.825000000000     0          
C3       C      0.771270000000     0.627500000000     0.858700000000     0          
H1       H      0.762700000000     0.601100000000     0.903000000000     0          
C4       C      0.744330000000     0.703000000000     0.766400000000     0          
C5       C      0.730500000000     0.662900000000     0.828200000000     0          
C6       C      0.837400000000     0.669300000000     0.765500000000     0          
H2       H      0.874200000000     0.672800000000     0.745200000000     0          
C7       C      0.796300000000     0.705200000000     0.732600000000     0          
H3       H      0.804900000000     0.730800000000     0.687000000000     0          
C8       C      0.674100000000     0.658600000000     0.863600000000     0          
H4       H      0.672000000000     0.627500000000     0.904900000000     0          
H5       H      0.648200000000     0.652700000000     0.814800000000     0          
H6       H      0.664500000000     0.692700000000     0.894700000000     0          
Zr1      Zr     0.898850000000     0.500000000000     0.000000000000     0          
Br1      Br     0.700600000000     0.500000000000     0.000000000000     0          
Zr2      Zr     0.000000000000     0.427190000000     0.117150000000     0          
O5       O      0.000000000000     0.430800000000     0.262300000000     0          
O6       O      0.000000000000     0.335970000000     0.110400000000     0          
O2       O      0.950690000000     0.500000000000     0.118000000000     0          
Br2      Br     0.671700000000     0.500000000000     0.848200000000     0          
O4       O      0.951200000000     0.427100000000     0.000000000000     0          
O1       O      0.444930000000     0.147080000000     0.587410000000     0          
O3       O      0.397310000000     0.082990000000     0.662100000000     0          
C1       C      0.407250000000     0.132050000000     0.638500000000     0          
C2       C      0.369650000000     0.175270000000     0.675000000000     0          
C3       C      0.372500000000     0.228730000000     0.641300000000     0          
H1       H      0.398900000000     0.237300000000     0.597000000000     0          
C4       C      0.297000000000     0.255670000000     0.733600000000     0          
C5       C      0.337100000000     0.269500000000     0.671800000000     0          
C6       C      0.330700000000     0.162600000000     0.734500000000     0          
H2       H      0.327200000000     0.125800000000     0.754800000000     0          
C7       C      0.294800000000     0.203700000000     0.767400000000     0          
H3       H      0.269200000000     0.195100000000     0.813000000000     0          
C8       C      0.341400000000     0.325900000000     0.636400000000     0          
H4       H      0.372500000000     0.328000000000     0.595100000000     0          
H5       H      0.347300000000     0.351800000000     0.685200000000     0          
H6       H      0.307300000000     0.335500000000     0.605300000000     0          
Zr2      Zr     0.572810000000     0.000000000000     0.382850000000     0          
O5       O      0.569200000000     0.000000000000     0.237700000000     0          
O6       O      0.664030000000     0.000000000000     0.389600000000     0          
O2       O      0.500000000000     0.049310000000     0.382000000000     0          
Br2      Br     0.500000000000     0.328300000000     0.651800000000     0          
O4       O      0.572900000000     0.048800000000     0.500000000000     0          
O1       O      0.852920000000     0.444930000000     0.087410000000     0          
O3       O      0.917010000000     0.397310000000     0.162100000000     0          
C1       C      0.867950000000     0.407250000000     0.138500000000     0          
C2       C      0.824730000000     0.369650000000     0.175000000000     0          
C3       C      0.771270000000     0.372500000000     0.141300000000     0          
H1       H      0.762700000000     0.398900000000     0.097000000000     0          
C4       C      0.744330000000     0.297000000000     0.233600000000     0          
C5       C      0.730500000000     0.337100000000     0.171800000000     0          
C6       C      0.837400000000     0.330700000000     0.234500000000     0          
H2       H      0.874200000000     0.327200000000     0.254800000000     0          
C7       C      0.796300000000     0.294800000000     0.267400000000     0          
H3       H      0.804900000000     0.269200000000     0.313000000000     0          
C8       C      0.674100000000     0.341400000000     0.136400000000     0          
H4       H      0.672000000000     0.372500000000     0.095100000000     0          
H5       H      0.648200000000     0.347300000000     0.185200000000     0          
H6       H      0.664500000000     0.307300000000     0.105300000000     0          
Zr2      Zr     0.000000000000     0.572810000000     0.882850000000     0          
O5       O      0.000000000000     0.569200000000     0.737700000000     0          
O6       O      0.000000000000     0.664030000000     0.889600000000     0          
O2       O      0.950690000000     0.500000000000     0.882000000000     0          
Br2      Br     0.671700000000     0.500000000000     0.151800000000     0          
O4       O      0.951200000000     0.572900000000     0.000000000000     0          
O1       O      0.555070000000     0.852920000000     0.587410000000     0          
O3       O      0.602690000000     0.917010000000     0.662100000000     0          
C1       C      0.592750000000     0.867950000000     0.638500000000     0          
C2       C      0.630350000000     0.824730000000     0.675000000000     0          
C3       C      0.627500000000     0.771270000000     0.641300000000     0          
H1       H      0.601100000000     0.762700000000     0.597000000000     0          
C4       C      0.703000000000     0.744330000000     0.733600000000     0          
C5       C      0.662900000000     0.730500000000     0.671800000000     0          
C6       C      0.669300000000     0.837400000000     0.734500000000     0          
H2       H      0.672800000000     0.874200000000     0.754800000000     0          
C7       C      0.705200000000     0.796300000000     0.767400000000     0          
H3       H      0.730800000000     0.804900000000     0.813000000000     0          
C8       C      0.658600000000     0.674100000000     0.636400000000     0          
H4       H      0.627500000000     0.672000000000     0.595100000000     0          
H5       H      0.652700000000     0.648200000000     0.685200000000     0          
H6       H      0.692700000000     0.664500000000     0.605300000000     0          
Zr2      Zr     0.427190000000     0.000000000000     0.382850000000     0          
O5       O      0.430800000000     0.000000000000     0.237700000000     0          
O6       O      0.335970000000     0.000000000000     0.389600000000     0          
O2       O      0.500000000000     0.950690000000     0.382000000000     0          
Br2      Br     0.500000000000     0.671700000000     0.651800000000     0          
O4       O      0.427100000000     0.951200000000     0.500000000000     0          
O1       O      0.147080000000     0.555070000000     0.087410000000     0          
O3       O      0.082990000000     0.602690000000     0.162100000000     0          
C1       C      0.132050000000     0.592750000000     0.138500000000     0          
C2       C      0.175270000000     0.630350000000     0.175000000000     0          
C3       C      0.228730000000     0.627500000000     0.141300000000     0          
H1       H      0.237300000000     0.601100000000     0.097000000000     0          
C4       C      0.255670000000     0.703000000000     0.233600000000     0          
C5       C      0.269500000000     0.662900000000     0.171800000000     0          
C6       C      0.162600000000     0.669300000000     0.234500000000     0          
H2       H      0.125800000000     0.672800000000     0.254800000000     0          
C7       C      0.203700000000     0.705200000000     0.267400000000     0          
H3       H      0.195100000000     0.730800000000     0.313000000000     0          
C8       C      0.325900000000     0.658600000000     0.136400000000     0          
H4       H      0.328000000000     0.627500000000     0.095100000000     0          
H5       H      0.351800000000     0.652700000000     0.185200000000     0          
H6       H      0.335500000000     0.692700000000     0.105300000000     0          
Zr2      Zr     0.000000000000     0.427190000000     0.882850000000     0          
O5       O      0.000000000000     0.430800000000     0.737700000000     0          
O6       O      0.000000000000     0.335970000000     0.889600000000     0          
O2       O      0.049310000000     0.500000000000     0.882000000000     0          
Br2      Br     0.328300000000     0.500000000000     0.151800000000     0          
O4       O      0.048800000000     0.427100000000     0.000000000000     0          
O1       O      0.555070000000     0.147080000000     0.587410000000     0          
O3       O      0.602690000000     0.082990000000     0.662100000000     0          
C1       C      0.592750000000     0.132050000000     0.638500000000     0          
C2       C      0.630350000000     0.175270000000     0.675000000000     0          
C3       C      0.627500000000     0.228730000000     0.641300000000     0          
H1       H      0.601100000000     0.237300000000     0.597000000000     0          
C4       C      0.703000000000     0.255670000000     0.733600000000     0          
C5       C      0.662900000000     0.269500000000     0.671800000000     0          
C6       C      0.669300000000     0.162600000000     0.734500000000     0          
H2       H      0.672800000000     0.125800000000     0.754800000000     0          
C7       C      0.705200000000     0.203700000000     0.767400000000     0          
H3       H      0.730800000000     0.195100000000     0.813000000000     0          
C8       C      0.658600000000     0.325900000000     0.636400000000     0          
H4       H      0.627500000000     0.328000000000     0.595100000000     0          
H5       H      0.652700000000     0.351800000000     0.685200000000     0          
H6       H      0.692700000000     0.335500000000     0.605300000000     0          
O1       O      0.852920000000     0.555070000000     0.087410000000     0          
O3       O      0.917010000000     0.602690000000     0.162100000000     0          
C1       C      0.867950000000     0.592750000000     0.138500000000     0          
C2       C      0.824730000000     0.630350000000     0.175000000000     0          
C3       C      0.771270000000     0.627500000000     0.141300000000     0          
H1       H      0.762700000000     0.601100000000     0.097000000000     0          
C4       C      0.744330000000     0.703000000000     0.233600000000     0          
C5       C      0.730500000000     0.662900000000     0.171800000000     0          
C6       C      0.837400000000     0.669300000000     0.234500000000     0          
H2       H      0.874200000000     0.672800000000     0.254800000000     0          
C7       C      0.796300000000     0.705200000000     0.267400000000     0          
H3       H      0.804900000000     0.730800000000     0.313000000000     0          
C8       C      0.674100000000     0.658600000000     0.136400000000     0          
H4       H      0.672000000000     0.627500000000     0.095100000000     0          
H5       H      0.648200000000     0.652700000000     0.185200000000     0          
H6       H      0.664500000000     0.692700000000     0.105300000000     0          
O1       O      0.444930000000     0.852920000000     0.587410000000     0          
O3       O      0.397310000000     0.917010000000     0.662100000000     0          
C1       C      0.407250000000     0.867950000000     0.638500000000     0          
C2       C      0.369650000000     0.824730000000     0.675000000000     0          
C3       C      0.372500000000     0.771270000000     0.641300000000     0          
H1       H      0.398900000000     0.762700000000     0.597000000000     0          
C4       C      0.297000000000     0.744330000000     0.733600000000     0          
C5       C      0.337100000000     0.730500000000     0.671800000000     0          
C6       C      0.330700000000     0.837400000000     0.734500000000     0          
H2       H      0.327200000000     0.874200000000     0.754800000000     0          
C7       C      0.294800000000     0.796300000000     0.767400000000     0          
H3       H      0.269200000000     0.804900000000     0.813000000000     0          
C8       C      0.341400000000     0.674100000000     0.636400000000     0          
H4       H      0.372500000000     0.672000000000     0.595100000000     0          
H5       H      0.347300000000     0.648200000000     0.685200000000     0          
H6       H      0.307300000000     0.664500000000     0.605300000000     0          
O1       O      0.147080000000     0.444930000000     0.087410000000     0          
O3       O      0.082990000000     0.397310000000     0.162100000000     0          
C1       C      0.132050000000     0.407250000000     0.138500000000     0          
C2       C      0.175270000000     0.369650000000     0.175000000000     0          
C3       C      0.228730000000     0.372500000000     0.141300000000     0          
H1       H      0.237300000000     0.398900000000     0.097000000000     0          
C4       C      0.255670000000     0.297000000000     0.233600000000     0          
C5       C      0.269500000000     0.337100000000     0.171800000000     0          
C6       C      0.162600000000     0.330700000000     0.234500000000     0          
H2       H      0.125800000000     0.327200000000     0.254800000000     0          
C7       C      0.203700000000     0.294800000000     0.267400000000     0          
H3       H      0.195100000000     0.269200000000     0.313000000000     0          
C8       C      0.325900000000     0.341400000000     0.136400000000     0          
H4       H      0.328000000000     0.372500000000     0.095100000000     0          
H5       H      0.351800000000     0.347300000000     0.185200000000     0          
H6       H      0.335500000000     0.307300000000     0.105300000000     0          
O1       O      0.555070000000     0.852920000000     0.412590000000     0          
O3       O      0.602690000000     0.917010000000     0.337900000000     0          
C1       C      0.592750000000     0.867950000000     0.361500000000     0          
C2       C      0.630350000000     0.824730000000     0.325000000000     0          
C3       C      0.627500000000     0.771270000000     0.358700000000     0          
H1       H      0.601100000000     0.762700000000     0.403000000000     0          
C4       C      0.703000000000     0.744330000000     0.266400000000     0          
C5       C      0.662900000000     0.730500000000     0.328200000000     0          
C6       C      0.669300000000     0.837400000000     0.265500000000     0          
H2       H      0.672800000000     0.874200000000     0.245200000000     0          
C7       C      0.705200000000     0.796300000000     0.232600000000     0          
H3       H      0.730800000000     0.804900000000     0.187000000000     0          
C8       C      0.658600000000     0.674100000000     0.363600000000     0          
H4       H      0.627500000000     0.672000000000     0.404900000000     0          
H5       H      0.652700000000     0.648200000000     0.314800000000     0          
H6       H      0.692700000000     0.664500000000     0.394700000000     0          
O1       O      0.147080000000     0.555070000000     0.912590000000     0          
O3       O      0.082990000000     0.602690000000     0.837900000000     0          
C1       C      0.132050000000     0.592750000000     0.861500000000     0          
C2       C      0.175270000000     0.630350000000     0.825000000000     0          
C3       C      0.228730000000     0.627500000000     0.858700000000     0          
H1       H      0.237300000000     0.601100000000     0.903000000000     0          
C4       C      0.255670000000     0.703000000000     0.766400000000     0          
C5       C      0.269500000000     0.662900000000     0.828200000000     0          
C6       C      0.162600000000     0.669300000000     0.765500000000     0          
H2       H      0.125800000000     0.672800000000     0.745200000000     0          
C7       C      0.203700000000     0.705200000000     0.732600000000     0          
H3       H      0.195100000000     0.730800000000     0.687000000000     0          
C8       C      0.325900000000     0.658600000000     0.863600000000     0          
H4       H      0.328000000000     0.627500000000     0.904900000000     0          
H5       H      0.351800000000     0.652700000000     0.814800000000     0          
H6       H      0.335500000000     0.692700000000     0.894700000000     0          
O1       O      0.444930000000     0.147080000000     0.412590000000     0          
O3       O      0.397310000000     0.082990000000     0.337900000000     0          
C1       C      0.407250000000     0.132050000000     0.361500000000     0          
C2       C      0.369650000000     0.175270000000     0.325000000000     0          
C3       C      0.372500000000     0.228730000000     0.358700000000     0          
H1       H      0.398900000000     0.237300000000     0.403000000000     0          
C4       C      0.297000000000     0.255670000000     0.266400000000     0          
C5       C      0.337100000000     0.269500000000     0.328200000000     0          
C6       C      0.330700000000     0.162600000000     0.265500000000     0          
H2       H      0.327200000000     0.125800000000     0.245200000000     0          
C7       C      0.294800000000     0.203700000000     0.232600000000     0          
H3       H      0.269200000000     0.195100000000     0.187000000000     0          
C8       C      0.341400000000     0.325900000000     0.363600000000     0          
H4       H      0.372500000000     0.328000000000     0.404900000000     0          
H5       H      0.347300000000     0.351800000000     0.314800000000     0          
H6       H      0.307300000000     0.335500000000     0.394700000000     0          
O1       O      0.852920000000     0.444930000000     0.912590000000     0          
O3       O      0.917010000000     0.397310000000     0.837900000000     0          
C1       C      0.867950000000     0.407250000000     0.861500000000     0          
C2       C      0.824730000000     0.369650000000     0.825000000000     0          
C3       C      0.771270000000     0.372500000000     0.858700000000     0          
H1       H      0.762700000000     0.398900000000     0.903000000000     0          
C4       C      0.744330000000     0.297000000000     0.766400000000     0          
C5       C      0.730500000000     0.337100000000     0.828200000000     0          
C6       C      0.837400000000     0.330700000000     0.765500000000     0          
H2       H      0.874200000000     0.327200000000     0.745200000000     0          
C7       C      0.796300000000     0.294800000000     0.732600000000     0          
H3       H      0.804900000000     0.269200000000     0.687000000000     0          
C8       C      0.674100000000     0.341400000000     0.863600000000     0          
H4       H      0.672000000000     0.372500000000     0.904900000000     0          
H5       H      0.648200000000     0.347300000000     0.814800000000     0          
H6       H      0.664500000000     0.307300000000     0.894700000000     0          


