data_HERJAS

_audit_creation_method RASPA-1.0
_audit_creation_date 2020-11-2
_audit_author_name 'Rocio Bueno-Perez'

_cell_length_a    35.2146
_cell_length_b    19.7752
_cell_length_c    15.7268
_cell_angle_alpha 90
_cell_angle_beta  90
_cell_angle_gamma 90
_cell_volume      10951.8

_symmetry_cell_setting          orthorhombic
_symmetry_space_group_name_Hall 'P 1'
_symmetry_space_group_name_H-M  'P 1'
_symmetry_Int_Tables_number     1

_symmetry_equiv_pos_as_xyz 'x,y,z'

loop_
_atom_site_label
_atom_site_type_symbol
_atom_site_fract_x
_atom_site_fract_y
_atom_site_fract_z
_atom_site_charge
Zr2      Zr     0.497860000000     0.589620000000     0.612860000000     0          
O1       O      0.400610000000     0.427400000000     0.417000000000     0          
O3       O      0.102790000000     0.058600000000     0.416300000000     0          
O6       O      0.466150000000     0.497200000000     0.613400000000     0          
O7       O      0.060890000000     0.121000000000     0.340800000000     0          
O8       O      0.445360000000     0.370800000000     0.340400000000     0          
O10      O      0.253440000000     0.238800000000     0.311600000000     0          
C1       C      0.410310000000     0.387400000000     0.360100000000     0          
C2       C      0.254050000000     0.238400000000     0.048500000000     0          
C3       C      0.094800000000     0.100000000000     0.360200000000     0          
C4       C      0.126720000000     0.133300000000     0.311300000000     0          
C5       C      0.385820000000     0.303500000000     0.250600000000     0          
H1       H      0.411300000000     0.292100000000     0.236700000000     0          
C6       C      0.285310000000     0.260000000000     0.095100000000     0          
H2       H      0.306900000000     0.276900000000     0.065700000000     0          
C7       C      0.223850000000     0.214000000000     0.094000000000     0          
H3       H      0.202500000000     0.196900000000     0.064000000000     0          
C8       C      0.121660000000     0.181900000000     0.251000000000     0          
H4       H      0.096800000000     0.197300000000     0.237700000000     0          
C9       C      0.379480000000     0.350700000000     0.312100000000     0          
C10      C      0.152600000000     0.208700000000     0.209100000000     0          
H5       H      0.149200000000     0.243900000000     0.168700000000     0          
C11      C      0.254970000000     0.235300000000     0.224400000000     0          
C12      C      0.356150000000     0.271200000000     0.207100000000     0          
H6       H      0.360900000000     0.237300000000     0.165700000000     0          
C13      C      0.286000000000     0.257700000000     0.181400000000     0          
C14      C      0.189200000000     0.183600000000     0.226700000000     0          
C15      C      0.223370000000     0.213200000000     0.179700000000     0          
C16      C      0.318250000000     0.291900000000     0.228300000000     0          
C17      C      0.162900000000     0.105100000000     0.328800000000     0          
H7       H      0.166100000000     0.068700000000     0.367500000000     0          
C18      C      0.193400000000     0.134100000000     0.285900000000     0          
H8       H      0.218300000000     0.118500000000     0.298500000000     0          
C19      C      0.342200000000     0.373400000000     0.329900000000     0          
H9       H      0.337600000000     0.408800000000     0.369500000000     0          
C20      C      0.312700000000     0.342000000000     0.287300000000     0          
H10      H      0.287400000000     0.355700000000     0.299500000000     0          
C21      C      0.282860000000     0.183300000000     0.349300000000     0          
H11      H      0.290200000000     0.151700000000     0.304100000000     0          
H12      H      0.270600000000     0.158300000000     0.395600000000     0          
H13      H      0.305500000000     0.206200000000     0.370900000000     0          
Zr1      Zr     0.431060000000     0.495400000000     0.500000000000     0          
O2       O      0.531760000000     0.592700000000     0.500000000000     0          
O4       O      0.464200000000     0.587100000000     0.500000000000     0          
Zr2      Zr     0.502140000000     0.410380000000     0.612860000000     0          
O1       O      0.599390000000     0.572600000000     0.417000000000     0          
O3       O      0.897210000000     0.941400000000     0.416300000000     0          
O6       O      0.533850000000     0.502800000000     0.613400000000     0          
O7       O      0.939110000000     0.879000000000     0.340800000000     0          
O8       O      0.554640000000     0.629200000000     0.340400000000     0          
O10      O      0.746560000000     0.761200000000     0.311600000000     0          
C1       C      0.589690000000     0.612600000000     0.360100000000     0          
C2       C      0.745950000000     0.761600000000     0.048500000000     0          
C3       C      0.905200000000     0.900000000000     0.360200000000     0          
C4       C      0.873280000000     0.866700000000     0.311300000000     0          
C5       C      0.614180000000     0.696500000000     0.250600000000     0          
H1       H      0.588700000000     0.707900000000     0.236700000000     0          
C6       C      0.714690000000     0.740000000000     0.095100000000     0          
H2       H      0.693100000000     0.723100000000     0.065700000000     0          
C7       C      0.776150000000     0.786000000000     0.094000000000     0          
H3       H      0.797500000000     0.803100000000     0.064000000000     0          
C8       C      0.878340000000     0.818100000000     0.251000000000     0          
H4       H      0.903200000000     0.802700000000     0.237700000000     0          
C9       C      0.620520000000     0.649300000000     0.312100000000     0          
C10      C      0.847400000000     0.791300000000     0.209100000000     0          
H5       H      0.850800000000     0.756100000000     0.168700000000     0          
C11      C      0.745030000000     0.764700000000     0.224400000000     0          
C12      C      0.643850000000     0.728800000000     0.207100000000     0          
H6       H      0.639100000000     0.762700000000     0.165700000000     0          
C13      C      0.714000000000     0.742300000000     0.181400000000     0          
C14      C      0.810800000000     0.816400000000     0.226700000000     0          
C15      C      0.776630000000     0.786800000000     0.179700000000     0          
C16      C      0.681750000000     0.708100000000     0.228300000000     0          
C17      C      0.837100000000     0.894900000000     0.328800000000     0          
H7       H      0.833900000000     0.931300000000     0.367500000000     0          
C18      C      0.806600000000     0.865900000000     0.285900000000     0          
H8       H      0.781700000000     0.881500000000     0.298500000000     0          
C19      C      0.657800000000     0.626600000000     0.329900000000     0          
H9       H      0.662400000000     0.591200000000     0.369500000000     0          
C20      C      0.687300000000     0.658000000000     0.287300000000     0          
H10      H      0.712600000000     0.644300000000     0.299500000000     0          
C21      C      0.717140000000     0.816700000000     0.349300000000     0          
H11      H      0.709800000000     0.848300000000     0.304100000000     0          
H12      H      0.729400000000     0.841700000000     0.395600000000     0          
H13      H      0.694500000000     0.793800000000     0.370900000000     0          
Zr1      Zr     0.568940000000     0.504600000000     0.500000000000     0          
O2       O      0.468240000000     0.407300000000     0.500000000000     0          
O4       O      0.535800000000     0.412900000000     0.500000000000     0          
Zr2      Zr     0.997860000000     0.910380000000     0.387140000000     0          
O1       O      0.900610000000     0.072600000000     0.583000000000     0          
O3       O      0.602790000000     0.441400000000     0.583700000000     0          
O6       O      0.966150000000     0.002800000000     0.386600000000     0          
O7       O      0.560890000000     0.379000000000     0.659200000000     0          
O8       O      0.945360000000     0.129200000000     0.659600000000     0          
O10      O      0.753440000000     0.261200000000     0.688400000000     0          
C1       C      0.910310000000     0.112600000000     0.639900000000     0          
C2       C      0.754050000000     0.261600000000     0.951500000000     0          
C3       C      0.594800000000     0.400000000000     0.639800000000     0          
C4       C      0.626720000000     0.366700000000     0.688700000000     0          
C5       C      0.885820000000     0.196500000000     0.749400000000     0          
H1       H      0.911300000000     0.207900000000     0.763300000000     0          
C6       C      0.785310000000     0.240000000000     0.904900000000     0          
H2       H      0.806900000000     0.223100000000     0.934300000000     0          
C7       C      0.723850000000     0.286000000000     0.906000000000     0          
H3       H      0.702500000000     0.303100000000     0.936000000000     0          
C8       C      0.621660000000     0.318100000000     0.749000000000     0          
H4       H      0.596800000000     0.302700000000     0.762300000000     0          
C9       C      0.879480000000     0.149300000000     0.687900000000     0          
C10      C      0.652600000000     0.291300000000     0.790900000000     0          
H5       H      0.649200000000     0.256100000000     0.831300000000     0          
C11      C      0.754970000000     0.264700000000     0.775600000000     0          
C12      C      0.856150000000     0.228800000000     0.792900000000     0          
H6       H      0.860900000000     0.262700000000     0.834300000000     0          
C13      C      0.786000000000     0.242300000000     0.818600000000     0          
C14      C      0.689200000000     0.316400000000     0.773300000000     0          
C15      C      0.723370000000     0.286800000000     0.820300000000     0          
C16      C      0.818250000000     0.208100000000     0.771700000000     0          
C17      C      0.662900000000     0.394900000000     0.671200000000     0          
H7       H      0.666100000000     0.431300000000     0.632500000000     0          
C18      C      0.693400000000     0.365900000000     0.714100000000     0          
H8       H      0.718300000000     0.381500000000     0.701500000000     0          
C19      C      0.842200000000     0.126600000000     0.670100000000     0          
H9       H      0.837600000000     0.091200000000     0.630500000000     0          
C20      C      0.812700000000     0.158000000000     0.712700000000     0          
H10      H      0.787400000000     0.144300000000     0.700500000000     0          
C21      C      0.782860000000     0.316700000000     0.650700000000     0          
H11      H      0.790200000000     0.348300000000     0.695900000000     0          
H12      H      0.770600000000     0.341700000000     0.604400000000     0          
H13      H      0.805500000000     0.293800000000     0.629100000000     0          
Zr1      Zr     0.931060000000     0.004600000000     0.500000000000     0          
O2       O      0.031760000000     0.907300000000     0.500000000000     0          
O4       O      0.964200000000     0.912900000000     0.500000000000     0          
Zr2      Zr     0.002140000000     0.089620000000     0.387140000000     0          
O1       O      0.099390000000     0.927400000000     0.583000000000     0          
O3       O      0.397210000000     0.558600000000     0.583700000000     0          
O6       O      0.033850000000     0.997200000000     0.386600000000     0          
O7       O      0.439110000000     0.621000000000     0.659200000000     0          
O8       O      0.054640000000     0.870800000000     0.659600000000     0          
O10      O      0.246560000000     0.738800000000     0.688400000000     0          
C1       C      0.089690000000     0.887400000000     0.639900000000     0          
C2       C      0.245950000000     0.738400000000     0.951500000000     0          
C3       C      0.405200000000     0.600000000000     0.639800000000     0          
C4       C      0.373280000000     0.633300000000     0.688700000000     0          
C5       C      0.114180000000     0.803500000000     0.749400000000     0          
H1       H      0.088700000000     0.792100000000     0.763300000000     0          
C6       C      0.214690000000     0.760000000000     0.904900000000     0          
H2       H      0.193100000000     0.776900000000     0.934300000000     0          
C7       C      0.276150000000     0.714000000000     0.906000000000     0          
H3       H      0.297500000000     0.696900000000     0.936000000000     0          
C8       C      0.378340000000     0.681900000000     0.749000000000     0          
H4       H      0.403200000000     0.697300000000     0.762300000000     0          
C9       C      0.120520000000     0.850700000000     0.687900000000     0          
C10      C      0.347400000000     0.708700000000     0.790900000000     0          
H5       H      0.350800000000     0.743900000000     0.831300000000     0          
C11      C      0.245030000000     0.735300000000     0.775600000000     0          
C12      C      0.143850000000     0.771200000000     0.792900000000     0          
H6       H      0.139100000000     0.737300000000     0.834300000000     0          
C13      C      0.214000000000     0.757700000000     0.818600000000     0          
C14      C      0.310800000000     0.683600000000     0.773300000000     0          
C15      C      0.276630000000     0.713200000000     0.820300000000     0          
C16      C      0.181750000000     0.791900000000     0.771700000000     0          
C17      C      0.337100000000     0.605100000000     0.671200000000     0          
H7       H      0.333900000000     0.568700000000     0.632500000000     0          
C18      C      0.306600000000     0.634100000000     0.714100000000     0          
H8       H      0.281700000000     0.618500000000     0.701500000000     0          
C19      C      0.157800000000     0.873400000000     0.670100000000     0          
H9       H      0.162400000000     0.908800000000     0.630500000000     0          
C20      C      0.187300000000     0.842000000000     0.712700000000     0          
H10      H      0.212600000000     0.855700000000     0.700500000000     0          
C21      C      0.217140000000     0.683300000000     0.650700000000     0          
H11      H      0.209800000000     0.651700000000     0.695900000000     0          
H12      H      0.229400000000     0.658300000000     0.604400000000     0          
H13      H      0.194500000000     0.706200000000     0.629100000000     0          
Zr1      Zr     0.068940000000     0.995400000000     0.500000000000     0          
O2       O      0.968240000000     0.092700000000     0.500000000000     0          
O4       O      0.035800000000     0.087100000000     0.500000000000     0          
Zr2      Zr     0.502140000000     0.410380000000     0.387140000000     0          
O1       O      0.599390000000     0.572600000000     0.583000000000     0          
O3       O      0.897210000000     0.941400000000     0.583700000000     0          
O6       O      0.533850000000     0.502800000000     0.386600000000     0          
O7       O      0.939110000000     0.879000000000     0.659200000000     0          
O8       O      0.554640000000     0.629200000000     0.659600000000     0          
O10      O      0.746560000000     0.761200000000     0.688400000000     0          
C1       C      0.589690000000     0.612600000000     0.639900000000     0          
C2       C      0.745950000000     0.761600000000     0.951500000000     0          
C3       C      0.905200000000     0.900000000000     0.639800000000     0          
C4       C      0.873280000000     0.866700000000     0.688700000000     0          
C5       C      0.614180000000     0.696500000000     0.749400000000     0          
H1       H      0.588700000000     0.707900000000     0.763300000000     0          
C6       C      0.714690000000     0.740000000000     0.904900000000     0          
H2       H      0.693100000000     0.723100000000     0.934300000000     0          
C7       C      0.776150000000     0.786000000000     0.906000000000     0          
H3       H      0.797500000000     0.803100000000     0.936000000000     0          
C8       C      0.878340000000     0.818100000000     0.749000000000     0          
H4       H      0.903200000000     0.802700000000     0.762300000000     0          
C9       C      0.620520000000     0.649300000000     0.687900000000     0          
C10      C      0.847400000000     0.791300000000     0.790900000000     0          
H5       H      0.850800000000     0.756100000000     0.831300000000     0          
C11      C      0.745030000000     0.764700000000     0.775600000000     0          
C12      C      0.643850000000     0.728800000000     0.792900000000     0          
H6       H      0.639100000000     0.762700000000     0.834300000000     0          
C13      C      0.714000000000     0.742300000000     0.818600000000     0          
C14      C      0.810800000000     0.816400000000     0.773300000000     0          
C15      C      0.776630000000     0.786800000000     0.820300000000     0          
C16      C      0.681750000000     0.708100000000     0.771700000000     0          
C17      C      0.837100000000     0.894900000000     0.671200000000     0          
H7       H      0.833900000000     0.931300000000     0.632500000000     0          
C18      C      0.806600000000     0.865900000000     0.714100000000     0          
H8       H      0.781700000000     0.881500000000     0.701500000000     0          
C19      C      0.657800000000     0.626600000000     0.670100000000     0          
H9       H      0.662400000000     0.591200000000     0.630500000000     0          
C20      C      0.687300000000     0.658000000000     0.712700000000     0          
H10      H      0.712600000000     0.644300000000     0.700500000000     0          
C21      C      0.717140000000     0.816700000000     0.650700000000     0          
H11      H      0.709800000000     0.848300000000     0.695900000000     0          
H12      H      0.729400000000     0.841700000000     0.604400000000     0          
H13      H      0.694500000000     0.793800000000     0.629100000000     0          
Zr2      Zr     0.497860000000     0.589620000000     0.387140000000     0          
O1       O      0.400610000000     0.427400000000     0.583000000000     0          
O3       O      0.102790000000     0.058600000000     0.583700000000     0          
O6       O      0.466150000000     0.497200000000     0.386600000000     0          
O7       O      0.060890000000     0.121000000000     0.659200000000     0          
O8       O      0.445360000000     0.370800000000     0.659600000000     0          
O10      O      0.253440000000     0.238800000000     0.688400000000     0          
C1       C      0.410310000000     0.387400000000     0.639900000000     0          
C2       C      0.254050000000     0.238400000000     0.951500000000     0          
C3       C      0.094800000000     0.100000000000     0.639800000000     0          
C4       C      0.126720000000     0.133300000000     0.688700000000     0          
C5       C      0.385820000000     0.303500000000     0.749400000000     0          
H1       H      0.411300000000     0.292100000000     0.763300000000     0          
C6       C      0.285310000000     0.260000000000     0.904900000000     0          
H2       H      0.306900000000     0.276900000000     0.934300000000     0          
C7       C      0.223850000000     0.214000000000     0.906000000000     0          
H3       H      0.202500000000     0.196900000000     0.936000000000     0          
C8       C      0.121660000000     0.181900000000     0.749000000000     0          
H4       H      0.096800000000     0.197300000000     0.762300000000     0          
C9       C      0.379480000000     0.350700000000     0.687900000000     0          
C10      C      0.152600000000     0.208700000000     0.790900000000     0          
H5       H      0.149200000000     0.243900000000     0.831300000000     0          
C11      C      0.254970000000     0.235300000000     0.775600000000     0          
C12      C      0.356150000000     0.271200000000     0.792900000000     0          
H6       H      0.360900000000     0.237300000000     0.834300000000     0          
C13      C      0.286000000000     0.257700000000     0.818600000000     0          
C14      C      0.189200000000     0.183600000000     0.773300000000     0          
C15      C      0.223370000000     0.213200000000     0.820300000000     0          
C16      C      0.318250000000     0.291900000000     0.771700000000     0          
C17      C      0.162900000000     0.105100000000     0.671200000000     0          
H7       H      0.166100000000     0.068700000000     0.632500000000     0          
C18      C      0.193400000000     0.134100000000     0.714100000000     0          
H8       H      0.218300000000     0.118500000000     0.701500000000     0          
C19      C      0.342200000000     0.373400000000     0.670100000000     0          
H9       H      0.337600000000     0.408800000000     0.630500000000     0          
C20      C      0.312700000000     0.342000000000     0.712700000000     0          
H10      H      0.287400000000     0.355700000000     0.700500000000     0          
C21      C      0.282860000000     0.183300000000     0.650700000000     0          
H11      H      0.290200000000     0.151700000000     0.695900000000     0          
H12      H      0.270600000000     0.158300000000     0.604400000000     0          
H13      H      0.305500000000     0.206200000000     0.629100000000     0          
Zr2      Zr     0.002140000000     0.089620000000     0.612860000000     0          
O1       O      0.099390000000     0.927400000000     0.417000000000     0          
O3       O      0.397210000000     0.558600000000     0.416300000000     0          
O6       O      0.033850000000     0.997200000000     0.613400000000     0          
O7       O      0.439110000000     0.621000000000     0.340800000000     0          
O8       O      0.054640000000     0.870800000000     0.340400000000     0          
O10      O      0.246560000000     0.738800000000     0.311600000000     0          
C1       C      0.089690000000     0.887400000000     0.360100000000     0          
C2       C      0.245950000000     0.738400000000     0.048500000000     0          
C3       C      0.405200000000     0.600000000000     0.360200000000     0          
C4       C      0.373280000000     0.633300000000     0.311300000000     0          
C5       C      0.114180000000     0.803500000000     0.250600000000     0          
H1       H      0.088700000000     0.792100000000     0.236700000000     0          
C6       C      0.214690000000     0.760000000000     0.095100000000     0          
H2       H      0.193100000000     0.776900000000     0.065700000000     0          
C7       C      0.276150000000     0.714000000000     0.094000000000     0          
H3       H      0.297500000000     0.696900000000     0.064000000000     0          
C8       C      0.378340000000     0.681900000000     0.251000000000     0          
H4       H      0.403200000000     0.697300000000     0.237700000000     0          
C9       C      0.120520000000     0.850700000000     0.312100000000     0          
C10      C      0.347400000000     0.708700000000     0.209100000000     0          
H5       H      0.350800000000     0.743900000000     0.168700000000     0          
C11      C      0.245030000000     0.735300000000     0.224400000000     0          
C12      C      0.143850000000     0.771200000000     0.207100000000     0          
H6       H      0.139100000000     0.737300000000     0.165700000000     0          
C13      C      0.214000000000     0.757700000000     0.181400000000     0          
C14      C      0.310800000000     0.683600000000     0.226700000000     0          
C15      C      0.276630000000     0.713200000000     0.179700000000     0          
C16      C      0.181750000000     0.791900000000     0.228300000000     0          
C17      C      0.337100000000     0.605100000000     0.328800000000     0          
H7       H      0.333900000000     0.568700000000     0.367500000000     0          
C18      C      0.306600000000     0.634100000000     0.285900000000     0          
H8       H      0.281700000000     0.618500000000     0.298500000000     0          
C19      C      0.157800000000     0.873400000000     0.329900000000     0          
H9       H      0.162400000000     0.908800000000     0.369500000000     0          
C20      C      0.187300000000     0.842000000000     0.287300000000     0          
H10      H      0.212600000000     0.855700000000     0.299500000000     0          
C21      C      0.217140000000     0.683300000000     0.349300000000     0          
H11      H      0.209800000000     0.651700000000     0.304100000000     0          
H12      H      0.229400000000     0.658300000000     0.395600000000     0          
H13      H      0.194500000000     0.706200000000     0.370900000000     0          
Zr2      Zr     0.997860000000     0.910380000000     0.612860000000     0          
O1       O      0.900610000000     0.072600000000     0.417000000000     0          
O3       O      0.602790000000     0.441400000000     0.416300000000     0          
O6       O      0.966150000000     0.002800000000     0.613400000000     0          
O7       O      0.560890000000     0.379000000000     0.340800000000     0          
O8       O      0.945360000000     0.129200000000     0.340400000000     0          
O10      O      0.753440000000     0.261200000000     0.311600000000     0          
C1       C      0.910310000000     0.112600000000     0.360100000000     0          
C2       C      0.754050000000     0.261600000000     0.048500000000     0          
C3       C      0.594800000000     0.400000000000     0.360200000000     0          
C4       C      0.626720000000     0.366700000000     0.311300000000     0          
C5       C      0.885820000000     0.196500000000     0.250600000000     0          
H1       H      0.911300000000     0.207900000000     0.236700000000     0          
C6       C      0.785310000000     0.240000000000     0.095100000000     0          
H2       H      0.806900000000     0.223100000000     0.065700000000     0          
C7       C      0.723850000000     0.286000000000     0.094000000000     0          
H3       H      0.702500000000     0.303100000000     0.064000000000     0          
C8       C      0.621660000000     0.318100000000     0.251000000000     0          
H4       H      0.596800000000     0.302700000000     0.237700000000     0          
C9       C      0.879480000000     0.149300000000     0.312100000000     0          
C10      C      0.652600000000     0.291300000000     0.209100000000     0          
H5       H      0.649200000000     0.256100000000     0.168700000000     0          
C11      C      0.754970000000     0.264700000000     0.224400000000     0          
C12      C      0.856150000000     0.228800000000     0.207100000000     0          
H6       H      0.860900000000     0.262700000000     0.165700000000     0          
C13      C      0.786000000000     0.242300000000     0.181400000000     0          
C14      C      0.689200000000     0.316400000000     0.226700000000     0          
C15      C      0.723370000000     0.286800000000     0.179700000000     0          
C16      C      0.818250000000     0.208100000000     0.228300000000     0          
C17      C      0.662900000000     0.394900000000     0.328800000000     0          
H7       H      0.666100000000     0.431300000000     0.367500000000     0          
C18      C      0.693400000000     0.365900000000     0.285900000000     0          
H8       H      0.718300000000     0.381500000000     0.298500000000     0          
C19      C      0.842200000000     0.126600000000     0.329900000000     0          
H9       H      0.837600000000     0.091200000000     0.369500000000     0          
C20      C      0.812700000000     0.158000000000     0.287300000000     0          
H10      H      0.787400000000     0.144300000000     0.299500000000     0          
C21      C      0.782860000000     0.316700000000     0.349300000000     0          
H11      H      0.790200000000     0.348300000000     0.304100000000     0          
H12      H      0.770600000000     0.341700000000     0.395600000000     0          
H13      H      0.805500000000     0.293800000000     0.370900000000     0          


