data_HERJIA

_audit_creation_method RASPA-1.0
_audit_creation_date 2020-11-2
_audit_author_name 'Rocio Bueno-Perez'

_cell_length_a    17.007
_cell_length_b    36.117
_cell_length_c    16.155
_cell_angle_alpha 90
_cell_angle_beta  90
_cell_angle_gamma 90
_cell_volume      9923.08

_symmetry_cell_setting          triclinic
_symmetry_space_group_name_Hall 'P 1'
_symmetry_space_group_name_H-M  'P 1'
_symmetry_Int_Tables_number     1

_symmetry_equiv_pos_as_xyz 'x,y,z'

loop_
_atom_site_label
_atom_site_type_symbol
_atom_site_fract_x
_atom_site_fract_y
_atom_site_fract_z
_atom_site_charge
O1       O      0.423200000000     0.598200000000     0.581400000000     0          
O2       O      0.357300000000     0.556700000000     0.656300000000     0          
C3       C      0.378500000000     0.588800000000     0.639200000000     0          
C4       C      0.350000000000     0.620000000000     0.689300000000     0          
C5       C      0.301300000000     0.683700000000     0.773300000000     0          
C6       C      0.384500000000     0.654100000000     0.681700000000     0          
H7       H      0.428100000000     0.657100000000     0.645600000000     0          
C8       C      0.260500000000     0.648200000000     0.788500000000     0          
H9       H      0.218400000000     0.645700000000     0.826800000000     0          
C10      C      0.288800000000     0.619000000000     0.742400000000     0          
H11      H      0.262700000000     0.595900000000     0.748600000000     0          
C12      C      0.357200000000     0.684100000000     0.725300000000     0          
H13      H      0.383800000000     0.707000000000     0.717700000000     0          
C14      C      0.270900000000     0.718600000000     0.817300000000     0          
C15      C      0.274900000000     0.721000000000     0.901100000000     0          
H16      H      0.297700000000     0.700200000000     0.927800000000     0          
O17      O      0.923200000000     0.098200000000     0.581400000000     0          
O18      O      0.857300000000     0.056700000000     0.656300000000     0          
C19      C      0.878500000000     0.088800000000     0.639200000000     0          
C20      C      0.850000000000     0.120000000000     0.689300000000     0          
C21      C      0.801300000000     0.183700000000     0.773300000000     0          
C22      C      0.884500000000     0.154100000000     0.681700000000     0          
H23      H      0.928100000000     0.157100000000     0.645600000000     0          
C24      C      0.760500000000     0.148200000000     0.788500000000     0          
H25      H      0.718400000000     0.145700000000     0.826800000000     0          
C26      C      0.788800000000     0.119000000000     0.742400000000     0          
H27      H      0.762700000000     0.095900000000     0.748600000000     0          
C28      C      0.857200000000     0.184100000000     0.725300000000     0          
H29      H      0.883800000000     0.207000000000     0.717700000000     0          
C30      C      0.770900000000     0.218600000000     0.817300000000     0          
C31      C      0.774900000000     0.221000000000     0.901100000000     0          
H32      H      0.797700000000     0.200200000000     0.927800000000     0          
C33      C      0.815000000000     0.275500000000     0.668000000000     0          
H34      H      0.835700000000     0.288200000000     0.717400000000     0          
H35      H      0.794300000000     0.293900000000     0.629300000000     0          
H36      H      0.856800000000     0.261200000000     0.641800000000     0          
O37      O      0.576800000000     0.401800000000     0.581400000000     0          
O38      O      0.642700000000     0.443300000000     0.656300000000     0          
C39      C      0.621500000000     0.411200000000     0.639200000000     0          
C40      C      0.650000000000     0.380000000000     0.689300000000     0          
C41      C      0.698700000000     0.316300000000     0.773300000000     0          
C42      C      0.615500000000     0.345900000000     0.681700000000     0          
H43      H      0.571900000000     0.342900000000     0.645600000000     0          
C44      C      0.739500000000     0.351800000000     0.788500000000     0          
H45      H      0.781600000000     0.354300000000     0.826800000000     0          
C46      C      0.711200000000     0.381000000000     0.742400000000     0          
H47      H      0.737300000000     0.404100000000     0.748600000000     0          
C48      C      0.642800000000     0.315900000000     0.725300000000     0          
H49      H      0.616200000000     0.293000000000     0.717700000000     0          
C50      C      0.729100000000     0.281400000000     0.817300000000     0          
C51      C      0.725100000000     0.279000000000     0.901100000000     0          
H52      H      0.702300000000     0.299800000000     0.927800000000     0          
O53      O      0.076800000000     0.901800000000     0.581400000000     0          
O54      O      0.142700000000     0.943300000000     0.656300000000     0          
C55      C      0.121500000000     0.911200000000     0.639200000000     0          
C56      C      0.150000000000     0.880000000000     0.689300000000     0          
C57      C      0.198700000000     0.816300000000     0.773300000000     0          
C58      C      0.115500000000     0.845900000000     0.681700000000     0          
H59      H      0.071900000000     0.842900000000     0.645600000000     0          
C60      C      0.239500000000     0.851800000000     0.788500000000     0          
H61      H      0.281600000000     0.854300000000     0.826800000000     0          
C62      C      0.211200000000     0.881000000000     0.742400000000     0          
H63      H      0.237300000000     0.904100000000     0.748600000000     0          
C64      C      0.142800000000     0.815900000000     0.725300000000     0          
H65      H      0.116200000000     0.793000000000     0.717700000000     0          
C66      C      0.229100000000     0.781400000000     0.817300000000     0          
C67      C      0.225100000000     0.779000000000     0.901100000000     0          
H68      H      0.202300000000     0.799800000000     0.927800000000     0          
C69      C      0.185000000000     0.724500000000     0.668000000000     0          
H70      H      0.164300000000     0.711800000000     0.717400000000     0          
H71      H      0.205700000000     0.706100000000     0.629300000000     0          
H72      H      0.143200000000     0.738800000000     0.641800000000     0          
O73      O      0.576800000000     0.598200000000     0.418600000000     0          
O74      O      0.642700000000     0.556700000000     0.343700000000     0          
C75      C      0.621500000000     0.588800000000     0.360800000000     0          
C76      C      0.650000000000     0.620000000000     0.310700000000     0          
C77      C      0.698700000000     0.683700000000     0.226700000000     0          
C78      C      0.615500000000     0.654100000000     0.318300000000     0          
H79      H      0.571900000000     0.657100000000     0.354400000000     0          
C80      C      0.739500000000     0.648200000000     0.211500000000     0          
H81      H      0.781600000000     0.645700000000     0.173200000000     0          
C82      C      0.711200000000     0.619000000000     0.257600000000     0          
H83      H      0.737300000000     0.595900000000     0.251400000000     0          
C84      C      0.642800000000     0.684100000000     0.274700000000     0          
H85      H      0.616200000000     0.707000000000     0.282300000000     0          
C86      C      0.729100000000     0.718600000000     0.182700000000     0          
C87      C      0.725100000000     0.721000000000     0.098900000000     0          
H88      H      0.702300000000     0.700200000000     0.072200000000     0          
C89      C      0.685000000000     0.775500000000     0.332000000000     0          
H90      H      0.664300000000     0.788200000000     0.282600000000     0          
H91      H      0.705700000000     0.793900000000     0.370700000000     0          
H92      H      0.643200000000     0.761200000000     0.358200000000     0          
O93      O      0.076800000000     0.098200000000     0.418600000000     0          
O94      O      0.142700000000     0.056700000000     0.343700000000     0          
C95      C      0.121500000000     0.088800000000     0.360800000000     0          
C96      C      0.150000000000     0.120000000000     0.310700000000     0          
C97      C      0.198700000000     0.183700000000     0.226700000000     0          
C98      C      0.115500000000     0.154100000000     0.318300000000     0          
H99      H      0.071900000000     0.157100000000     0.354400000000     0          
C100     C      0.239500000000     0.148200000000     0.211500000000     0          
H101     H      0.281600000000     0.145700000000     0.173200000000     0          
C102     C      0.211200000000     0.119000000000     0.257600000000     0          
H103     H      0.237300000000     0.095900000000     0.251400000000     0          
C104     C      0.142800000000     0.184100000000     0.274700000000     0          
H105     H      0.116200000000     0.207000000000     0.282300000000     0          
C106     C      0.229100000000     0.218600000000     0.182700000000     0          
C107     C      0.225100000000     0.221000000000     0.098900000000     0          
H108     H      0.202300000000     0.200200000000     0.072200000000     0          
O109     O      0.423200000000     0.401800000000     0.418600000000     0          
O110     O      0.357300000000     0.443300000000     0.343700000000     0          
C111     C      0.378500000000     0.411200000000     0.360800000000     0          
C112     C      0.350000000000     0.380000000000     0.310700000000     0          
C113     C      0.301300000000     0.316300000000     0.226700000000     0          
C114     C      0.384500000000     0.345900000000     0.318300000000     0          
H115     H      0.428100000000     0.342900000000     0.354400000000     0          
C116     C      0.260500000000     0.351800000000     0.211500000000     0          
H117     H      0.218400000000     0.354300000000     0.173200000000     0          
C118     C      0.288800000000     0.381000000000     0.257600000000     0          
H119     H      0.262700000000     0.404100000000     0.251400000000     0          
C120     C      0.357200000000     0.315900000000     0.274700000000     0          
H121     H      0.383800000000     0.293000000000     0.282300000000     0          
C122     C      0.270900000000     0.281400000000     0.182700000000     0          
C123     C      0.274900000000     0.279000000000     0.098900000000     0          
H124     H      0.297700000000     0.299800000000     0.072200000000     0          
C125     C      0.315000000000     0.224500000000     0.332000000000     0          
H126     H      0.335700000000     0.211800000000     0.282600000000     0          
H127     H      0.294300000000     0.206100000000     0.370700000000     0          
H128     H      0.356800000000     0.238800000000     0.358200000000     0          
O129     O      0.923200000000     0.901800000000     0.418600000000     0          
O130     O      0.857300000000     0.943300000000     0.343700000000     0          
C131     C      0.878500000000     0.911200000000     0.360800000000     0          
C132     C      0.850000000000     0.880000000000     0.310700000000     0          
C133     C      0.801300000000     0.816300000000     0.226700000000     0          
C134     C      0.884500000000     0.845900000000     0.318300000000     0          
H135     H      0.928100000000     0.842900000000     0.354400000000     0          
C136     C      0.760500000000     0.851800000000     0.211500000000     0          
H137     H      0.718400000000     0.854300000000     0.173200000000     0          
C138     C      0.788800000000     0.881000000000     0.257600000000     0          
H139     H      0.762700000000     0.904100000000     0.251400000000     0          
C140     C      0.857200000000     0.815900000000     0.274700000000     0          
H141     H      0.883800000000     0.793000000000     0.282300000000     0          
C142     C      0.770900000000     0.781400000000     0.182700000000     0          
C143     C      0.774900000000     0.779000000000     0.098900000000     0          
H144     H      0.797700000000     0.799800000000     0.072200000000     0          
O145     O      0.576800000000     0.401800000000     0.418600000000     0          
O146     O      0.642700000000     0.443300000000     0.343700000000     0          
C147     C      0.621500000000     0.411200000000     0.360800000000     0          
C148     C      0.650000000000     0.380000000000     0.310700000000     0          
C149     C      0.698700000000     0.316300000000     0.226700000000     0          
C150     C      0.615500000000     0.345900000000     0.318300000000     0          
H151     H      0.571900000000     0.342900000000     0.354400000000     0          
C152     C      0.739500000000     0.351800000000     0.211500000000     0          
H153     H      0.781600000000     0.354300000000     0.173200000000     0          
C154     C      0.711200000000     0.381000000000     0.257600000000     0          
H155     H      0.737300000000     0.404100000000     0.251400000000     0          
C156     C      0.642800000000     0.315900000000     0.274700000000     0          
H157     H      0.616200000000     0.293000000000     0.282300000000     0          
C158     C      0.729100000000     0.281400000000     0.182700000000     0          
C159     C      0.725100000000     0.279000000000     0.098900000000     0          
H160     H      0.702300000000     0.299800000000     0.072200000000     0          
C161     C      0.685000000000     0.224500000000     0.332000000000     0          
H162     H      0.664300000000     0.211800000000     0.282600000000     0          
H163     H      0.705700000000     0.206100000000     0.370700000000     0          
H164     H      0.643200000000     0.238800000000     0.358200000000     0          
O165     O      0.076800000000     0.901800000000     0.418600000000     0          
O166     O      0.142700000000     0.943300000000     0.343700000000     0          
C167     C      0.121500000000     0.911200000000     0.360800000000     0          
C168     C      0.150000000000     0.880000000000     0.310700000000     0          
C169     C      0.198700000000     0.816300000000     0.226700000000     0          
C170     C      0.115500000000     0.845900000000     0.318300000000     0          
H171     H      0.071900000000     0.842900000000     0.354400000000     0          
C172     C      0.239500000000     0.851800000000     0.211500000000     0          
H173     H      0.281600000000     0.854300000000     0.173200000000     0          
C174     C      0.211200000000     0.881000000000     0.257600000000     0          
H175     H      0.237300000000     0.904100000000     0.251400000000     0          
C176     C      0.142800000000     0.815900000000     0.274700000000     0          
H177     H      0.116200000000     0.793000000000     0.282300000000     0          
C178     C      0.229100000000     0.781400000000     0.182700000000     0          
C179     C      0.225100000000     0.779000000000     0.098900000000     0          
H180     H      0.202300000000     0.799800000000     0.072200000000     0          
O181     O      0.423200000000     0.598200000000     0.418600000000     0          
O182     O      0.357300000000     0.556700000000     0.343700000000     0          
C183     C      0.378500000000     0.588800000000     0.360800000000     0          
C184     C      0.350000000000     0.620000000000     0.310700000000     0          
C185     C      0.301300000000     0.683700000000     0.226700000000     0          
C186     C      0.384500000000     0.654100000000     0.318300000000     0          
H187     H      0.428100000000     0.657100000000     0.354400000000     0          
C188     C      0.260500000000     0.648200000000     0.211500000000     0          
H189     H      0.218400000000     0.645700000000     0.173200000000     0          
C190     C      0.288800000000     0.619000000000     0.257600000000     0          
H191     H      0.262700000000     0.595900000000     0.251400000000     0          
C192     C      0.357200000000     0.684100000000     0.274700000000     0          
H193     H      0.383800000000     0.707000000000     0.282300000000     0          
C194     C      0.270900000000     0.718600000000     0.182700000000     0          
C195     C      0.274900000000     0.721000000000     0.098900000000     0          
H196     H      0.297700000000     0.700200000000     0.072200000000     0          
C197     C      0.315000000000     0.775500000000     0.332000000000     0          
H198     H      0.335700000000     0.788200000000     0.282600000000     0          
H199     H      0.294300000000     0.793900000000     0.370700000000     0          
H200     H      0.356800000000     0.761200000000     0.358200000000     0          
O201     O      0.923200000000     0.098200000000     0.418600000000     0          
O202     O      0.857300000000     0.056700000000     0.343700000000     0          
C203     C      0.878500000000     0.088800000000     0.360800000000     0          
C204     C      0.850000000000     0.120000000000     0.310700000000     0          
C205     C      0.801300000000     0.183700000000     0.226700000000     0          
C206     C      0.884500000000     0.154100000000     0.318300000000     0          
H207     H      0.928100000000     0.157100000000     0.354400000000     0          
C208     C      0.760500000000     0.148200000000     0.211500000000     0          
H209     H      0.718400000000     0.145700000000     0.173200000000     0          
C210     C      0.788800000000     0.119000000000     0.257600000000     0          
H211     H      0.762700000000     0.095900000000     0.251400000000     0          
C212     C      0.857200000000     0.184100000000     0.274700000000     0          
H213     H      0.883800000000     0.207000000000     0.282300000000     0          
C214     C      0.770900000000     0.218600000000     0.182700000000     0          
C215     C      0.774900000000     0.221000000000     0.098900000000     0          
H216     H      0.797700000000     0.200200000000     0.072200000000     0          
O217     O      0.423200000000     0.401800000000     0.581400000000     0          
O218     O      0.357300000000     0.443300000000     0.656300000000     0          
C219     C      0.378500000000     0.411200000000     0.639200000000     0          
C220     C      0.350000000000     0.380000000000     0.689300000000     0          
C221     C      0.301300000000     0.316300000000     0.773300000000     0          
C222     C      0.384500000000     0.345900000000     0.681700000000     0          
H223     H      0.428100000000     0.342900000000     0.645600000000     0          
C224     C      0.260500000000     0.351800000000     0.788500000000     0          
H225     H      0.218400000000     0.354300000000     0.826800000000     0          
C226     C      0.288800000000     0.381000000000     0.742400000000     0          
H227     H      0.262700000000     0.404100000000     0.748600000000     0          
C228     C      0.357200000000     0.315900000000     0.725300000000     0          
H229     H      0.383800000000     0.293000000000     0.717700000000     0          
C230     C      0.270900000000     0.281400000000     0.817300000000     0          
C231     C      0.274900000000     0.279000000000     0.901100000000     0          
H232     H      0.297700000000     0.299800000000     0.927800000000     0          
O233     O      0.923200000000     0.901800000000     0.581400000000     0          
O234     O      0.857300000000     0.943300000000     0.656300000000     0          
C235     C      0.878500000000     0.911200000000     0.639200000000     0          
C236     C      0.850000000000     0.880000000000     0.689300000000     0          
C237     C      0.801300000000     0.816300000000     0.773300000000     0          
C238     C      0.884500000000     0.845900000000     0.681700000000     0          
H239     H      0.928100000000     0.842900000000     0.645600000000     0          
C240     C      0.760500000000     0.851800000000     0.788500000000     0          
H241     H      0.718400000000     0.854300000000     0.826800000000     0          
C242     C      0.788800000000     0.881000000000     0.742400000000     0          
H243     H      0.762700000000     0.904100000000     0.748600000000     0          
C244     C      0.857200000000     0.815900000000     0.725300000000     0          
H245     H      0.883800000000     0.793000000000     0.717700000000     0          
C246     C      0.770900000000     0.781400000000     0.817300000000     0          
C247     C      0.774900000000     0.779000000000     0.901100000000     0          
H248     H      0.797700000000     0.799800000000     0.927800000000     0          
C249     C      0.815000000000     0.724500000000     0.668000000000     0          
H250     H      0.835700000000     0.711800000000     0.717400000000     0          
H251     H      0.794300000000     0.706100000000     0.629300000000     0          
H252     H      0.856800000000     0.738800000000     0.641800000000     0          
O253     O      0.576800000000     0.598200000000     0.581400000000     0          
O254     O      0.642700000000     0.556700000000     0.656300000000     0          
C255     C      0.621500000000     0.588800000000     0.639200000000     0          
C256     C      0.650000000000     0.620000000000     0.689300000000     0          
C257     C      0.698700000000     0.683700000000     0.773300000000     0          
C258     C      0.615500000000     0.654100000000     0.681700000000     0          
H259     H      0.571900000000     0.657100000000     0.645600000000     0          
C260     C      0.739500000000     0.648200000000     0.788500000000     0          
H261     H      0.781600000000     0.645700000000     0.826800000000     0          
C262     C      0.711200000000     0.619000000000     0.742400000000     0          
H263     H      0.737300000000     0.595900000000     0.748600000000     0          
C264     C      0.642800000000     0.684100000000     0.725300000000     0          
H265     H      0.616200000000     0.707000000000     0.717700000000     0          
C266     C      0.729100000000     0.718600000000     0.817300000000     0          
C267     C      0.725100000000     0.721000000000     0.901100000000     0          
H268     H      0.702300000000     0.700200000000     0.927800000000     0          
O269     O      0.076800000000     0.098200000000     0.581400000000     0          
O270     O      0.142700000000     0.056700000000     0.656300000000     0          
C271     C      0.121500000000     0.088800000000     0.639200000000     0          
C272     C      0.150000000000     0.120000000000     0.689300000000     0          
C273     C      0.198700000000     0.183700000000     0.773300000000     0          
C274     C      0.115500000000     0.154100000000     0.681700000000     0          
H275     H      0.071900000000     0.157100000000     0.645600000000     0          
C276     C      0.239500000000     0.148200000000     0.788500000000     0          
H277     H      0.281600000000     0.145700000000     0.826800000000     0          
C278     C      0.211200000000     0.119000000000     0.742400000000     0          
H279     H      0.237300000000     0.095900000000     0.748600000000     0          
C280     C      0.142800000000     0.184100000000     0.725300000000     0          
H281     H      0.116200000000     0.207000000000     0.717700000000     0          
C282     C      0.229100000000     0.218600000000     0.817300000000     0          
C283     C      0.225100000000     0.221000000000     0.901100000000     0          
H284     H      0.202300000000     0.200200000000     0.927800000000     0          
C285     C      0.185000000000     0.275500000000     0.668000000000     0          
H286     H      0.164300000000     0.288200000000     0.717400000000     0          
H287     H      0.205700000000     0.293900000000     0.629300000000     0          
H288     H      0.143200000000     0.261200000000     0.641800000000     0          
Zr289    Zr     0.500000000000     0.567690000000     0.500000000000     0          
Zr290    Zr     0.000000000000     0.067690000000     0.500000000000     0          
Zr291    Zr     0.500000000000     0.432310000000     0.500000000000     0          
Zr292    Zr     0.000000000000     0.932310000000     0.500000000000     0          
Zr293    Zr     0.395830000000     0.500000000000     0.389960000000     0          
Zr294    Zr     0.895830000000     0.000000000000     0.389960000000     0          
Zr295    Zr     0.604170000000     0.500000000000     0.389960000000     0          
Zr296    Zr     0.104170000000     0.000000000000     0.389960000000     0          
Zr297    Zr     0.604170000000     0.500000000000     0.610040000000     0          
Zr298    Zr     0.104170000000     0.000000000000     0.610040000000     0          
Zr299    Zr     0.395830000000     0.500000000000     0.610040000000     0          
Zr300    Zr     0.895830000000     0.000000000000     0.610040000000     0          
O301     O      0.500000000000     0.531900000000     0.391100000000     0          
O302     O      0.000000000000     0.031900000000     0.391100000000     0          
O303     O      0.500000000000     0.468100000000     0.391100000000     0          
O304     O      0.000000000000     0.968100000000     0.391100000000     0          
O305     O      0.500000000000     0.531900000000     0.608900000000     0          
O306     O      0.000000000000     0.031900000000     0.608900000000     0          
O307     O      0.500000000000     0.468100000000     0.608900000000     0          
O308     O      0.000000000000     0.968100000000     0.608900000000     0          
O309     O      0.389800000000     0.533800000000     0.500000000000     0          
O310     O      0.889800000000     0.033800000000     0.500000000000     0          
O311     O      0.610200000000     0.466200000000     0.500000000000     0          
O312     O      0.110200000000     0.966200000000     0.500000000000     0          
O313     O      0.610200000000     0.533800000000     0.500000000000     0          
O314     O      0.110200000000     0.033800000000     0.500000000000     0          
O315     O      0.389800000000     0.466200000000     0.500000000000     0          
O316     O      0.889800000000     0.966200000000     0.500000000000     0          
O317     O      0.250000000000     0.750000000000     0.693900000000     0          
C318     C      0.250000000000     0.750000000000     0.955400000000     0          
C319     C      0.250000000000     0.750000000000     0.777000000000     0          
O320     O      0.750000000000     0.250000000000     0.693900000000     0          
C321     C      0.750000000000     0.250000000000     0.955400000000     0          
C322     C      0.750000000000     0.250000000000     0.777000000000     0          
O323     O      0.750000000000     0.750000000000     0.306100000000     0          
C324     C      0.750000000000     0.750000000000     0.044600000000     0          
C325     C      0.750000000000     0.750000000000     0.223000000000     0          
O326     O      0.250000000000     0.250000000000     0.306100000000     0          
C327     C      0.250000000000     0.250000000000     0.044600000000     0          
C328     C      0.250000000000     0.250000000000     0.223000000000     0          
O329     O      0.750000000000     0.250000000000     0.306100000000     0          
C330     C      0.750000000000     0.250000000000     0.044600000000     0          
C331     C      0.750000000000     0.250000000000     0.223000000000     0          
O332     O      0.250000000000     0.750000000000     0.306100000000     0          
C333     C      0.250000000000     0.750000000000     0.044600000000     0          
C334     C      0.250000000000     0.750000000000     0.223000000000     0          
O335     O      0.250000000000     0.250000000000     0.693900000000     0          
C336     C      0.250000000000     0.250000000000     0.955400000000     0          
C337     C      0.250000000000     0.250000000000     0.777000000000     0          
O338     O      0.750000000000     0.750000000000     0.693900000000     0          
C339     C      0.750000000000     0.750000000000     0.955400000000     0          
C340     C      0.750000000000     0.750000000000     0.777000000000     0          


