data_HICBAZ

_audit_creation_method RASPA-1.0
_audit_creation_date 2020-11-2
_audit_author_name 'Rocio Bueno-Perez'

_cell_length_a    23.159
_cell_length_b    33.299
_cell_length_c    20.824
_cell_angle_alpha 90
_cell_angle_beta  90
_cell_angle_gamma 90
_cell_volume      16058.9

_symmetry_cell_setting          orthorhombic
_symmetry_space_group_name_Hall 'P 1'
_symmetry_space_group_name_H-M  'P 1'
_symmetry_Int_Tables_number     1

_symmetry_equiv_pos_as_xyz 'x,y,z'

loop_
_atom_site_label
_atom_site_type_symbol
_atom_site_fract_x
_atom_site_fract_y
_atom_site_fract_z
_atom_site_charge
O1       O      0.441300000000     0.392160000000     0.436000000000     0          
C1       C      0.403400000000     0.403800000000     0.395300000000     0          
O4       O      0.392000000000     0.439710000000     0.381000000000     0          
C2       C      0.371400000000     0.371700000000     0.360200000000     0          
C3       C      0.372100000000     0.332600000000     0.380600000000     0          
C4       C      0.340300000000     0.380400000000     0.306700000000     0          
H1       H      0.392600000000     0.326100000000     0.417600000000     0          
C6       C      0.343200000000     0.302400000000     0.347600000000     0          
H2       H      0.340100000000     0.406700000000     0.291800000000     0          
C7       C      0.309100000000     0.351800000000     0.273600000000     0          
C9       C      0.313200000000     0.311300000000     0.293500000000     0          
H3       H      0.344500000000     0.276100000000     0.362600000000     0          
H4       H      0.286000000000     0.359100000000     0.239000000000     0          
C11      C      0.279000000000     0.280100000000     0.257400000000     0          
C14      C      0.278500000000     0.279900000000     0.191100000000     0          
H8       H      0.297500000000     0.300100000000     0.168600000000     0          
Zr1      Zr     0.500000000000     0.425880000000     0.500000000000     0          
O2       O      0.500000000000     0.463500000000     0.584500000000     0          
O3       O      0.575100000000     0.463300000000     0.500000000000     0          
C19      C      0.969000000000     0.534800000000     0.500000000000     0          
C21      C      0.941000000000     0.571600000000     0.500000000000     0          
C22      C      0.968900000000     0.608100000000     0.500000000000     0          
H9       H      0.900800000000     0.571700000000     0.500000000000     0          
H10      H      0.948200000000     0.632100000000     0.500000000000     0          
Zr2      Zr     0.576030000000     0.500000000000     0.584420000000     0          
O6       O      0.669600000000     0.500000000000     0.567400000000     0          
C10      C      0.786600000000     0.500000000000     0.444400000000     0          
H5       H      0.767900000000     0.500000000000     0.404900000000     0          
C12      C      0.845700000000     0.500000000000     0.445600000000     0          
H6       H      0.865200000000     0.500000000000     0.406600000000     0          
C5       C      0.691600000000     0.500000000000     0.500000000000     0          
C8       C      0.753500000000     0.500000000000     0.500000000000     0          
C15      C      0.877400000000     0.500000000000     0.500000000000     0          
C17      C      0.935700000000     0.500000000000     0.500000000000     0          
C13      C      0.250000000000     0.250000000000     0.290200000000     0          
H7       H      0.250000000000     0.250000000000     0.334900000000     0          
C16      C      0.250000000000     0.250000000000     0.158100000000     0          
C18      C      0.250000000000     0.250000000000     0.088200000000     0          
C20      C      0.250000000000     0.250000000000     0.034100000000     0          
O1       O      0.558700000000     0.607840000000     0.436000000000     0          
C1       C      0.596600000000     0.596200000000     0.395300000000     0          
O4       O      0.608000000000     0.560290000000     0.381000000000     0          
C2       C      0.628600000000     0.628300000000     0.360200000000     0          
C3       C      0.627900000000     0.667400000000     0.380600000000     0          
C4       C      0.659700000000     0.619600000000     0.306700000000     0          
H1       H      0.607400000000     0.673900000000     0.417600000000     0          
C6       C      0.656800000000     0.697600000000     0.347600000000     0          
H2       H      0.659900000000     0.593300000000     0.291800000000     0          
C7       C      0.690900000000     0.648200000000     0.273600000000     0          
C9       C      0.686800000000     0.688700000000     0.293500000000     0          
H3       H      0.655500000000     0.723900000000     0.362600000000     0          
H4       H      0.714000000000     0.640900000000     0.239000000000     0          
C11      C      0.721000000000     0.719900000000     0.257400000000     0          
C14      C      0.721500000000     0.720100000000     0.191100000000     0          
H8       H      0.702500000000     0.699900000000     0.168600000000     0          
Zr1      Zr     0.500000000000     0.574120000000     0.500000000000     0          
O2       O      0.500000000000     0.536500000000     0.584500000000     0          
O3       O      0.424900000000     0.536700000000     0.500000000000     0          
C19      C      0.031000000000     0.465200000000     0.500000000000     0          
C21      C      0.059000000000     0.428400000000     0.500000000000     0          
C22      C      0.031100000000     0.391900000000     0.500000000000     0          
H9       H      0.099200000000     0.428300000000     0.500000000000     0          
H10      H      0.051800000000     0.367900000000     0.500000000000     0          
Zr2      Zr     0.423970000000     0.500000000000     0.584420000000     0          
O6       O      0.330400000000     0.500000000000     0.567400000000     0          
C10      C      0.213400000000     0.500000000000     0.444400000000     0          
H5       H      0.232100000000     0.500000000000     0.404900000000     0          
C12      C      0.154300000000     0.500000000000     0.445600000000     0          
H6       H      0.134800000000     0.500000000000     0.406600000000     0          
C5       C      0.308400000000     0.500000000000     0.500000000000     0          
C8       C      0.246500000000     0.500000000000     0.500000000000     0          
C15      C      0.122600000000     0.500000000000     0.500000000000     0          
C17      C      0.064300000000     0.500000000000     0.500000000000     0          
C13      C      0.750000000000     0.750000000000     0.290200000000     0          
H7       H      0.750000000000     0.750000000000     0.334900000000     0          
C16      C      0.750000000000     0.750000000000     0.158100000000     0          
C18      C      0.750000000000     0.750000000000     0.088200000000     0          
C20      C      0.750000000000     0.750000000000     0.034100000000     0          
O1       O      0.441300000000     0.607840000000     0.564000000000     0          
C1       C      0.403400000000     0.596200000000     0.604700000000     0          
O4       O      0.392000000000     0.560290000000     0.619000000000     0          
C2       C      0.371400000000     0.628300000000     0.639800000000     0          
C3       C      0.372100000000     0.667400000000     0.619400000000     0          
C4       C      0.340300000000     0.619600000000     0.693300000000     0          
H1       H      0.392600000000     0.673900000000     0.582400000000     0          
C6       C      0.343200000000     0.697600000000     0.652400000000     0          
H2       H      0.340100000000     0.593300000000     0.708200000000     0          
C7       C      0.309100000000     0.648200000000     0.726400000000     0          
C9       C      0.313200000000     0.688700000000     0.706500000000     0          
H3       H      0.344500000000     0.723900000000     0.637400000000     0          
H4       H      0.286000000000     0.640900000000     0.761000000000     0          
C11      C      0.279000000000     0.719900000000     0.742600000000     0          
C14      C      0.278500000000     0.720100000000     0.808900000000     0          
H8       H      0.297500000000     0.699900000000     0.831400000000     0          
O2       O      0.500000000000     0.536500000000     0.415500000000     0          
O3       O      0.575100000000     0.536700000000     0.500000000000     0          
C19      C      0.969000000000     0.465200000000     0.500000000000     0          
C21      C      0.941000000000     0.428400000000     0.500000000000     0          
C22      C      0.968900000000     0.391900000000     0.500000000000     0          
H9       H      0.900800000000     0.428300000000     0.500000000000     0          
H10      H      0.948200000000     0.367900000000     0.500000000000     0          
Zr2      Zr     0.576030000000     0.500000000000     0.415580000000     0          
O6       O      0.669600000000     0.500000000000     0.432600000000     0          
C10      C      0.786600000000     0.500000000000     0.555600000000     0          
H5       H      0.767900000000     0.500000000000     0.595100000000     0          
C12      C      0.845700000000     0.500000000000     0.554400000000     0          
H6       H      0.865200000000     0.500000000000     0.593400000000     0          
C13      C      0.250000000000     0.750000000000     0.709800000000     0          
H7       H      0.250000000000     0.750000000000     0.665100000000     0          
C16      C      0.250000000000     0.750000000000     0.841900000000     0          
C18      C      0.250000000000     0.750000000000     0.911800000000     0          
C20      C      0.250000000000     0.750000000000     0.965900000000     0          
O1       O      0.558700000000     0.392160000000     0.564000000000     0          
C1       C      0.596600000000     0.403800000000     0.604700000000     0          
O4       O      0.608000000000     0.439710000000     0.619000000000     0          
C2       C      0.628600000000     0.371700000000     0.639800000000     0          
C3       C      0.627900000000     0.332600000000     0.619400000000     0          
C4       C      0.659700000000     0.380400000000     0.693300000000     0          
H1       H      0.607400000000     0.326100000000     0.582400000000     0          
C6       C      0.656800000000     0.302400000000     0.652400000000     0          
H2       H      0.659900000000     0.406700000000     0.708200000000     0          
C7       C      0.690900000000     0.351800000000     0.726400000000     0          
C9       C      0.686800000000     0.311300000000     0.706500000000     0          
H3       H      0.655500000000     0.276100000000     0.637400000000     0          
H4       H      0.714000000000     0.359100000000     0.761000000000     0          
C11      C      0.721000000000     0.280100000000     0.742600000000     0          
C14      C      0.721500000000     0.279900000000     0.808900000000     0          
H8       H      0.702500000000     0.300100000000     0.831400000000     0          
O2       O      0.500000000000     0.463500000000     0.415500000000     0          
O3       O      0.424900000000     0.463300000000     0.500000000000     0          
C19      C      0.031000000000     0.534800000000     0.500000000000     0          
C21      C      0.059000000000     0.571600000000     0.500000000000     0          
C22      C      0.031100000000     0.608100000000     0.500000000000     0          
H9       H      0.099200000000     0.571700000000     0.500000000000     0          
H10      H      0.051800000000     0.632100000000     0.500000000000     0          
Zr2      Zr     0.423970000000     0.500000000000     0.415580000000     0          
O6       O      0.330400000000     0.500000000000     0.432600000000     0          
C10      C      0.213400000000     0.500000000000     0.555600000000     0          
H5       H      0.232100000000     0.500000000000     0.595100000000     0          
C12      C      0.154300000000     0.500000000000     0.554400000000     0          
H6       H      0.134800000000     0.500000000000     0.593400000000     0          
C13      C      0.750000000000     0.250000000000     0.709800000000     0          
H7       H      0.750000000000     0.250000000000     0.665100000000     0          
C16      C      0.750000000000     0.250000000000     0.841900000000     0          
C18      C      0.750000000000     0.250000000000     0.911800000000     0          
C20      C      0.750000000000     0.250000000000     0.965900000000     0          
O1       O      0.558700000000     0.607840000000     0.564000000000     0          
C1       C      0.596600000000     0.596200000000     0.604700000000     0          
O4       O      0.608000000000     0.560290000000     0.619000000000     0          
C2       C      0.628600000000     0.628300000000     0.639800000000     0          
C3       C      0.627900000000     0.667400000000     0.619400000000     0          
C4       C      0.659700000000     0.619600000000     0.693300000000     0          
H1       H      0.607400000000     0.673900000000     0.582400000000     0          
C6       C      0.656800000000     0.697600000000     0.652400000000     0          
H2       H      0.659900000000     0.593300000000     0.708200000000     0          
C7       C      0.690900000000     0.648200000000     0.726400000000     0          
C9       C      0.686800000000     0.688700000000     0.706500000000     0          
H3       H      0.655500000000     0.723900000000     0.637400000000     0          
H4       H      0.714000000000     0.640900000000     0.761000000000     0          
C11      C      0.721000000000     0.719900000000     0.742600000000     0          
C14      C      0.721500000000     0.720100000000     0.808900000000     0          
H8       H      0.702500000000     0.699900000000     0.831400000000     0          
C13      C      0.750000000000     0.750000000000     0.709800000000     0          
H7       H      0.750000000000     0.750000000000     0.665100000000     0          
C16      C      0.750000000000     0.750000000000     0.841900000000     0          
C18      C      0.750000000000     0.750000000000     0.911800000000     0          
C20      C      0.750000000000     0.750000000000     0.965900000000     0          
O1       O      0.441300000000     0.392160000000     0.564000000000     0          
C1       C      0.403400000000     0.403800000000     0.604700000000     0          
O4       O      0.392000000000     0.439710000000     0.619000000000     0          
C2       C      0.371400000000     0.371700000000     0.639800000000     0          
C3       C      0.372100000000     0.332600000000     0.619400000000     0          
C4       C      0.340300000000     0.380400000000     0.693300000000     0          
H1       H      0.392600000000     0.326100000000     0.582400000000     0          
C6       C      0.343200000000     0.302400000000     0.652400000000     0          
H2       H      0.340100000000     0.406700000000     0.708200000000     0          
C7       C      0.309100000000     0.351800000000     0.726400000000     0          
C9       C      0.313200000000     0.311300000000     0.706500000000     0          
H3       H      0.344500000000     0.276100000000     0.637400000000     0          
H4       H      0.286000000000     0.359100000000     0.761000000000     0          
C11      C      0.279000000000     0.280100000000     0.742600000000     0          
C14      C      0.278500000000     0.279900000000     0.808900000000     0          
H8       H      0.297500000000     0.300100000000     0.831400000000     0          
C13      C      0.250000000000     0.250000000000     0.709800000000     0          
H7       H      0.250000000000     0.250000000000     0.665100000000     0          
C16      C      0.250000000000     0.250000000000     0.841900000000     0          
C18      C      0.250000000000     0.250000000000     0.911800000000     0          
C20      C      0.250000000000     0.250000000000     0.965900000000     0          
O1       O      0.558700000000     0.392160000000     0.436000000000     0          
C1       C      0.596600000000     0.403800000000     0.395300000000     0          
O4       O      0.608000000000     0.439710000000     0.381000000000     0          
C2       C      0.628600000000     0.371700000000     0.360200000000     0          
C3       C      0.627900000000     0.332600000000     0.380600000000     0          
C4       C      0.659700000000     0.380400000000     0.306700000000     0          
H1       H      0.607400000000     0.326100000000     0.417600000000     0          
C6       C      0.656800000000     0.302400000000     0.347600000000     0          
H2       H      0.659900000000     0.406700000000     0.291800000000     0          
C7       C      0.690900000000     0.351800000000     0.273600000000     0          
C9       C      0.686800000000     0.311300000000     0.293500000000     0          
H3       H      0.655500000000     0.276100000000     0.362600000000     0          
H4       H      0.714000000000     0.359100000000     0.239000000000     0          
C11      C      0.721000000000     0.280100000000     0.257400000000     0          
C14      C      0.721500000000     0.279900000000     0.191100000000     0          
H8       H      0.702500000000     0.300100000000     0.168600000000     0          
C13      C      0.750000000000     0.250000000000     0.290200000000     0          
H7       H      0.750000000000     0.250000000000     0.334900000000     0          
C16      C      0.750000000000     0.250000000000     0.158100000000     0          
C18      C      0.750000000000     0.250000000000     0.088200000000     0          
C20      C      0.750000000000     0.250000000000     0.034100000000     0          
O1       O      0.441300000000     0.607840000000     0.436000000000     0          
C1       C      0.403400000000     0.596200000000     0.395300000000     0          
O4       O      0.392000000000     0.560290000000     0.381000000000     0          
C2       C      0.371400000000     0.628300000000     0.360200000000     0          
C3       C      0.372100000000     0.667400000000     0.380600000000     0          
C4       C      0.340300000000     0.619600000000     0.306700000000     0          
H1       H      0.392600000000     0.673900000000     0.417600000000     0          
C6       C      0.343200000000     0.697600000000     0.347600000000     0          
H2       H      0.340100000000     0.593300000000     0.291800000000     0          
C7       C      0.309100000000     0.648200000000     0.273600000000     0          
C9       C      0.313200000000     0.688700000000     0.293500000000     0          
H3       H      0.344500000000     0.723900000000     0.362600000000     0          
H4       H      0.286000000000     0.640900000000     0.239000000000     0          
C11      C      0.279000000000     0.719900000000     0.257400000000     0          
C14      C      0.278500000000     0.720100000000     0.191100000000     0          
H8       H      0.297500000000     0.699900000000     0.168600000000     0          
C13      C      0.250000000000     0.750000000000     0.290200000000     0          
H7       H      0.250000000000     0.750000000000     0.334900000000     0          
C16      C      0.250000000000     0.750000000000     0.158100000000     0          
C18      C      0.250000000000     0.750000000000     0.088200000000     0          
C20      C      0.250000000000     0.750000000000     0.034100000000     0          
O1       O      0.941300000000     0.892160000000     0.436000000000     0          
C1       C      0.903400000000     0.903800000000     0.395300000000     0          
O4       O      0.892000000000     0.939710000000     0.381000000000     0          
C2       C      0.871400000000     0.871700000000     0.360200000000     0          
C3       C      0.872100000000     0.832600000000     0.380600000000     0          
C4       C      0.840300000000     0.880400000000     0.306700000000     0          
H1       H      0.892600000000     0.826100000000     0.417600000000     0          
C6       C      0.843200000000     0.802400000000     0.347600000000     0          
H2       H      0.840100000000     0.906700000000     0.291800000000     0          
C7       C      0.809100000000     0.851800000000     0.273600000000     0          
C9       C      0.813200000000     0.811300000000     0.293500000000     0          
H3       H      0.844500000000     0.776100000000     0.362600000000     0          
H4       H      0.786000000000     0.859100000000     0.239000000000     0          
C11      C      0.779000000000     0.780100000000     0.257400000000     0          
C14      C      0.778500000000     0.779900000000     0.191100000000     0          
H8       H      0.797500000000     0.800100000000     0.168600000000     0          
Zr1      Zr     0.000000000000     0.925880000000     0.500000000000     0          
O2       O      0.000000000000     0.963500000000     0.584500000000     0          
O3       O      0.075100000000     0.963300000000     0.500000000000     0          
C19      C      0.469000000000     0.034800000000     0.500000000000     0          
C21      C      0.441000000000     0.071600000000     0.500000000000     0          
C22      C      0.468900000000     0.108100000000     0.500000000000     0          
H9       H      0.400800000000     0.071700000000     0.500000000000     0          
H10      H      0.448200000000     0.132100000000     0.500000000000     0          
Zr2      Zr     0.076030000000     0.000000000000     0.584420000000     0          
O6       O      0.169600000000     0.000000000000     0.567400000000     0          
C10      C      0.286600000000     0.000000000000     0.444400000000     0          
H5       H      0.267900000000     0.000000000000     0.404900000000     0          
C12      C      0.345700000000     0.000000000000     0.445600000000     0          
H6       H      0.365200000000     0.000000000000     0.406600000000     0          
C5       C      0.191600000000     0.000000000000     0.500000000000     0          
C8       C      0.253500000000     0.000000000000     0.500000000000     0          
C15      C      0.377400000000     0.000000000000     0.500000000000     0          
C17      C      0.435700000000     0.000000000000     0.500000000000     0          
O1       O      0.058700000000     0.107840000000     0.436000000000     0          
C1       C      0.096600000000     0.096200000000     0.395300000000     0          
O4       O      0.108000000000     0.060290000000     0.381000000000     0          
C2       C      0.128600000000     0.128300000000     0.360200000000     0          
C3       C      0.127900000000     0.167400000000     0.380600000000     0          
C4       C      0.159700000000     0.119600000000     0.306700000000     0          
H1       H      0.107400000000     0.173900000000     0.417600000000     0          
C6       C      0.156800000000     0.197600000000     0.347600000000     0          
H2       H      0.159900000000     0.093300000000     0.291800000000     0          
C7       C      0.190900000000     0.148200000000     0.273600000000     0          
C9       C      0.186800000000     0.188700000000     0.293500000000     0          
H3       H      0.155500000000     0.223900000000     0.362600000000     0          
H4       H      0.214000000000     0.140900000000     0.239000000000     0          
C11      C      0.221000000000     0.219900000000     0.257400000000     0          
C14      C      0.221500000000     0.220100000000     0.191100000000     0          
H8       H      0.202500000000     0.199900000000     0.168600000000     0          
Zr1      Zr     0.000000000000     0.074120000000     0.500000000000     0          
O2       O      0.000000000000     0.036500000000     0.584500000000     0          
O3       O      0.924900000000     0.036700000000     0.500000000000     0          
C19      C      0.531000000000     0.965200000000     0.500000000000     0          
C21      C      0.559000000000     0.928400000000     0.500000000000     0          
C22      C      0.531100000000     0.891900000000     0.500000000000     0          
H9       H      0.599200000000     0.928300000000     0.500000000000     0          
H10      H      0.551800000000     0.867900000000     0.500000000000     0          
Zr2      Zr     0.923970000000     0.000000000000     0.584420000000     0          
O6       O      0.830400000000     0.000000000000     0.567400000000     0          
C10      C      0.713400000000     0.000000000000     0.444400000000     0          
H5       H      0.732100000000     0.000000000000     0.404900000000     0          
C12      C      0.654300000000     0.000000000000     0.445600000000     0          
H6       H      0.634800000000     0.000000000000     0.406600000000     0          
C5       C      0.808400000000     0.000000000000     0.500000000000     0          
C8       C      0.746500000000     0.000000000000     0.500000000000     0          
C15      C      0.622600000000     0.000000000000     0.500000000000     0          
C17      C      0.564300000000     0.000000000000     0.500000000000     0          
O1       O      0.941300000000     0.107840000000     0.564000000000     0          
C1       C      0.903400000000     0.096200000000     0.604700000000     0          
O4       O      0.892000000000     0.060290000000     0.619000000000     0          
C2       C      0.871400000000     0.128300000000     0.639800000000     0          
C3       C      0.872100000000     0.167400000000     0.619400000000     0          
C4       C      0.840300000000     0.119600000000     0.693300000000     0          
H1       H      0.892600000000     0.173900000000     0.582400000000     0          
C6       C      0.843200000000     0.197600000000     0.652400000000     0          
H2       H      0.840100000000     0.093300000000     0.708200000000     0          
C7       C      0.809100000000     0.148200000000     0.726400000000     0          
C9       C      0.813200000000     0.188700000000     0.706500000000     0          
H3       H      0.844500000000     0.223900000000     0.637400000000     0          
H4       H      0.786000000000     0.140900000000     0.761000000000     0          
C11      C      0.779000000000     0.219900000000     0.742600000000     0          
C14      C      0.778500000000     0.220100000000     0.808900000000     0          
H8       H      0.797500000000     0.199900000000     0.831400000000     0          
O2       O      0.000000000000     0.036500000000     0.415500000000     0          
O3       O      0.075100000000     0.036700000000     0.500000000000     0          
C19      C      0.469000000000     0.965200000000     0.500000000000     0          
C21      C      0.441000000000     0.928400000000     0.500000000000     0          
C22      C      0.468900000000     0.891900000000     0.500000000000     0          
H9       H      0.400800000000     0.928300000000     0.500000000000     0          
H10      H      0.448200000000     0.867900000000     0.500000000000     0          
Zr2      Zr     0.076030000000     0.000000000000     0.415580000000     0          
O6       O      0.169600000000     0.000000000000     0.432600000000     0          
C10      C      0.286600000000     0.000000000000     0.555600000000     0          
H5       H      0.267900000000     0.000000000000     0.595100000000     0          
C12      C      0.345700000000     0.000000000000     0.554400000000     0          
H6       H      0.365200000000     0.000000000000     0.593400000000     0          
O1       O      0.058700000000     0.892160000000     0.564000000000     0          
C1       C      0.096600000000     0.903800000000     0.604700000000     0          
O4       O      0.108000000000     0.939710000000     0.619000000000     0          
C2       C      0.128600000000     0.871700000000     0.639800000000     0          
C3       C      0.127900000000     0.832600000000     0.619400000000     0          
C4       C      0.159700000000     0.880400000000     0.693300000000     0          
H1       H      0.107400000000     0.826100000000     0.582400000000     0          
C6       C      0.156800000000     0.802400000000     0.652400000000     0          
H2       H      0.159900000000     0.906700000000     0.708200000000     0          
C7       C      0.190900000000     0.851800000000     0.726400000000     0          
C9       C      0.186800000000     0.811300000000     0.706500000000     0          
H3       H      0.155500000000     0.776100000000     0.637400000000     0          
H4       H      0.214000000000     0.859100000000     0.761000000000     0          
C11      C      0.221000000000     0.780100000000     0.742600000000     0          
C14      C      0.221500000000     0.779900000000     0.808900000000     0          
H8       H      0.202500000000     0.800100000000     0.831400000000     0          
O2       O      0.000000000000     0.963500000000     0.415500000000     0          
O3       O      0.924900000000     0.963300000000     0.500000000000     0          
C19      C      0.531000000000     0.034800000000     0.500000000000     0          
C21      C      0.559000000000     0.071600000000     0.500000000000     0          
C22      C      0.531100000000     0.108100000000     0.500000000000     0          
H9       H      0.599200000000     0.071700000000     0.500000000000     0          
H10      H      0.551800000000     0.132100000000     0.500000000000     0          
Zr2      Zr     0.923970000000     0.000000000000     0.415580000000     0          
O6       O      0.830400000000     0.000000000000     0.432600000000     0          
C10      C      0.713400000000     0.000000000000     0.555600000000     0          
H5       H      0.732100000000     0.000000000000     0.595100000000     0          
C12      C      0.654300000000     0.000000000000     0.554400000000     0          
H6       H      0.634800000000     0.000000000000     0.593400000000     0          
O1       O      0.058700000000     0.107840000000     0.564000000000     0          
C1       C      0.096600000000     0.096200000000     0.604700000000     0          
O4       O      0.108000000000     0.060290000000     0.619000000000     0          
C2       C      0.128600000000     0.128300000000     0.639800000000     0          
C3       C      0.127900000000     0.167400000000     0.619400000000     0          
C4       C      0.159700000000     0.119600000000     0.693300000000     0          
H1       H      0.107400000000     0.173900000000     0.582400000000     0          
C6       C      0.156800000000     0.197600000000     0.652400000000     0          
H2       H      0.159900000000     0.093300000000     0.708200000000     0          
C7       C      0.190900000000     0.148200000000     0.726400000000     0          
C9       C      0.186800000000     0.188700000000     0.706500000000     0          
H3       H      0.155500000000     0.223900000000     0.637400000000     0          
H4       H      0.214000000000     0.140900000000     0.761000000000     0          
C11      C      0.221000000000     0.219900000000     0.742600000000     0          
C14      C      0.221500000000     0.220100000000     0.808900000000     0          
H8       H      0.202500000000     0.199900000000     0.831400000000     0          
O1       O      0.941300000000     0.892160000000     0.564000000000     0          
C1       C      0.903400000000     0.903800000000     0.604700000000     0          
O4       O      0.892000000000     0.939710000000     0.619000000000     0          
C2       C      0.871400000000     0.871700000000     0.639800000000     0          
C3       C      0.872100000000     0.832600000000     0.619400000000     0          
C4       C      0.840300000000     0.880400000000     0.693300000000     0          
H1       H      0.892600000000     0.826100000000     0.582400000000     0          
C6       C      0.843200000000     0.802400000000     0.652400000000     0          
H2       H      0.840100000000     0.906700000000     0.708200000000     0          
C7       C      0.809100000000     0.851800000000     0.726400000000     0          
C9       C      0.813200000000     0.811300000000     0.706500000000     0          
H3       H      0.844500000000     0.776100000000     0.637400000000     0          
H4       H      0.786000000000     0.859100000000     0.761000000000     0          
C11      C      0.779000000000     0.780100000000     0.742600000000     0          
C14      C      0.778500000000     0.779900000000     0.808900000000     0          
H8       H      0.797500000000     0.800100000000     0.831400000000     0          
O1       O      0.058700000000     0.892160000000     0.436000000000     0          
C1       C      0.096600000000     0.903800000000     0.395300000000     0          
O4       O      0.108000000000     0.939710000000     0.381000000000     0          
C2       C      0.128600000000     0.871700000000     0.360200000000     0          
C3       C      0.127900000000     0.832600000000     0.380600000000     0          
C4       C      0.159700000000     0.880400000000     0.306700000000     0          
H1       H      0.107400000000     0.826100000000     0.417600000000     0          
C6       C      0.156800000000     0.802400000000     0.347600000000     0          
H2       H      0.159900000000     0.906700000000     0.291800000000     0          
C7       C      0.190900000000     0.851800000000     0.273600000000     0          
C9       C      0.186800000000     0.811300000000     0.293500000000     0          
H3       H      0.155500000000     0.776100000000     0.362600000000     0          
H4       H      0.214000000000     0.859100000000     0.239000000000     0          
C11      C      0.221000000000     0.780100000000     0.257400000000     0          
C14      C      0.221500000000     0.779900000000     0.191100000000     0          
H8       H      0.202500000000     0.800100000000     0.168600000000     0          
O1       O      0.941300000000     0.107840000000     0.436000000000     0          
C1       C      0.903400000000     0.096200000000     0.395300000000     0          
O4       O      0.892000000000     0.060290000000     0.381000000000     0          
C2       C      0.871400000000     0.128300000000     0.360200000000     0          
C3       C      0.872100000000     0.167400000000     0.380600000000     0          
C4       C      0.840300000000     0.119600000000     0.306700000000     0          
H1       H      0.892600000000     0.173900000000     0.417600000000     0          
C6       C      0.843200000000     0.197600000000     0.347600000000     0          
H2       H      0.840100000000     0.093300000000     0.291800000000     0          
C7       C      0.809100000000     0.148200000000     0.273600000000     0          
C9       C      0.813200000000     0.188700000000     0.293500000000     0          
H3       H      0.844500000000     0.223900000000     0.362600000000     0          
H4       H      0.786000000000     0.140900000000     0.239000000000     0          
C11      C      0.779000000000     0.219900000000     0.257400000000     0          
C14      C      0.778500000000     0.220100000000     0.191100000000     0          
H8       H      0.797500000000     0.199900000000     0.168600000000     0          


