data_HICNIT

_audit_creation_method RASPA-1.0
_audit_creation_date 2020-4-3
_audit_author_name 'Rocio Bueno-Perez'

_cell_length_a    22.327
_cell_length_b    33.727
_cell_length_c    20.888
_cell_angle_alpha 90
_cell_angle_beta  90
_cell_angle_gamma 90
_cell_volume      15729.1

_symmetry_cell_setting          orthorhombic
_symmetry_space_group_name_Hall 'P 1'
_symmetry_space_group_name_H-M  'P 1'
_symmetry_Int_Tables_number     1

_symmetry_equiv_pos_as_xyz 'x,y,z'

loop_
_atom_site_label
_atom_site_type_symbol
_atom_site_fract_x
_atom_site_fract_y
_atom_site_fract_z
_atom_site_charge
Zr1      Zr     0.500000000000     0.573090000000     0.500000000000     0          
Zr2      Zr     0.421250000000     0.500000000000     0.415470000000     0          
O1       O      0.560800000000     0.606140000000     0.564000000000     0          
O2       O      0.610200000000     0.559650000000     0.619400000000     0          
O3       O      0.500000000000     0.536000000000     0.416400000000     0          
O4       O      0.419800000000     0.535900000000     0.500000000000     0          
O5       O      0.437500000000     0.500000000000     0.311800000000     0          
O6       O      0.323700000000     0.500000000000     0.425000000000     0          
C1       C      0.597000000000     0.595100000000     0.605700000000     0          
C2       C      0.750000000000     0.750000000000     0.711400000000     0          
H1       H      0.750000000000     0.750000000000     0.666900000000     0          
C3       C      0.687800000000     0.687900000000     0.707000000000     0          
C4       C      0.630700000000     0.626700000000     0.641100000000     0          
C5       C      0.721400000000     0.719300000000     0.743000000000     0          
C6       C      0.654900000000     0.695500000000     0.654700000000     0          
H2       H      0.651400000000     0.721600000000     0.640900000000     0          
C7       C      0.626900000000     0.666900000000     0.621800000000     0          
H3       H      0.604600000000     0.673600000000     0.585800000000     0          
C8       C      0.721300000000     0.719700000000     0.808800000000     0          
H4       H      0.702100000000     0.699500000000     0.831200000000     0          
C9       C      0.693600000000     0.648400000000     0.725600000000     0          
H5       H      0.717100000000     0.642000000000     0.760900000000     0          
C10      C      0.664800000000     0.619000000000     0.692200000000     0          
H6       H      0.669200000000     0.592900000000     0.705600000000     0          
C11      C      0.750000000000     0.750000000000     0.842000000000     0          
C12      C      0.750000000000     0.750000000000     0.910300000000     0          
C13      C      0.750000000000     0.750000000000     0.966500000000     0          
O1E      O      0.939200000000     0.893860000000     0.564000000000     0          
O2E      O      0.889800000000     0.940350000000     0.619400000000     0          
C1E      C      0.903000000000     0.904900000000     0.605700000000     0          
C3E      C      0.812200000000     0.812100000000     0.707000000000     0          
C4E      C      0.869300000000     0.873300000000     0.641100000000     0          
C5E      C      0.778600000000     0.780700000000     0.743000000000     0          
C6E      C      0.845100000000     0.804500000000     0.654700000000     0          
H2E      H      0.848600000000     0.778400000000     0.640900000000     0          
C7E      C      0.873100000000     0.833100000000     0.621800000000     0          
H3E      H      0.895400000000     0.826400000000     0.585800000000     0          
C8E      C      0.778700000000     0.780300000000     0.808800000000     0          
H4E      H      0.797900000000     0.800500000000     0.831200000000     0          
C9E      C      0.806400000000     0.851600000000     0.725600000000     0          
H5E      H      0.782900000000     0.858000000000     0.760900000000     0          
C10E     C      0.835200000000     0.881000000000     0.692200000000     0          
H6E      H      0.830800000000     0.907100000000     0.705600000000     0          
O1I      O      0.560800000000     0.606140000000     0.436000000000     0          
O2I      O      0.610200000000     0.559650000000     0.380600000000     0          
C1I      C      0.597000000000     0.595100000000     0.394300000000     0          
C2I      C      0.750000000000     0.750000000000     0.288600000000     0          
H1I      H      0.750000000000     0.750000000000     0.333100000000     0          
C3I      C      0.687800000000     0.687900000000     0.293000000000     0          
C4I      C      0.630700000000     0.626700000000     0.358900000000     0          
C5I      C      0.721400000000     0.719300000000     0.257000000000     0          
C6I      C      0.654900000000     0.695500000000     0.345300000000     0          
H2I      H      0.651400000000     0.721600000000     0.359100000000     0          
C7I      C      0.626900000000     0.666900000000     0.378200000000     0          
H3I      H      0.604600000000     0.673600000000     0.414200000000     0          
C8I      C      0.721300000000     0.719700000000     0.191200000000     0          
H4I      H      0.702100000000     0.699500000000     0.168800000000     0          
C9I      C      0.693600000000     0.648400000000     0.274400000000     0          
H5I      H      0.717100000000     0.642000000000     0.239100000000     0          
C10I     C      0.664800000000     0.619000000000     0.307800000000     0          
H6I      H      0.669200000000     0.592900000000     0.294400000000     0          
C11I     C      0.750000000000     0.750000000000     0.158000000000     0          
C12I     C      0.750000000000     0.750000000000     0.089700000000     0          
C13I     C      0.750000000000     0.750000000000     0.033500000000     0          
O1L      O      0.939200000000     0.893860000000     0.436000000000     0          
O2L      O      0.889800000000     0.940350000000     0.380600000000     0          
C1L      C      0.903000000000     0.904900000000     0.394300000000     0          
C3L      C      0.812200000000     0.812100000000     0.293000000000     0          
C4L      C      0.869300000000     0.873300000000     0.358900000000     0          
C5L      C      0.778600000000     0.780700000000     0.257000000000     0          
C6L      C      0.845100000000     0.804500000000     0.345300000000     0          
H2L      H      0.848600000000     0.778400000000     0.359100000000     0          
C7L      C      0.873100000000     0.833100000000     0.378200000000     0          
H3L      H      0.895400000000     0.826400000000     0.414200000000     0          
C8L      C      0.778700000000     0.780300000000     0.191200000000     0          
H4L      H      0.797900000000     0.800500000000     0.168800000000     0          
C9L      C      0.806400000000     0.851600000000     0.274400000000     0          
H5L      H      0.782900000000     0.858000000000     0.239100000000     0          
C10L     C      0.835200000000     0.881000000000     0.307800000000     0          
H6L      H      0.830800000000     0.907100000000     0.294400000000     0          
Zr2A     Zr     0.578750000000     0.500000000000     0.415470000000     0          
O3A      O      0.500000000000     0.464000000000     0.416400000000     0          
O4A      O      0.580200000000     0.464100000000     0.500000000000     0          
O5A      O      0.562500000000     0.500000000000     0.311800000000     0          
O6A      O      0.676300000000     0.500000000000     0.425000000000     0          
Zr1A     Zr     0.500000000000     0.426910000000     0.500000000000     0          
Zr1E     Zr     0.000000000000     0.926910000000     0.500000000000     0          
Zr2B     Zr     0.421250000000     0.500000000000     0.584530000000     0          
Zr2C     Zr     0.578750000000     0.500000000000     0.584530000000     0          
Zr2D     Zr     0.921250000000     0.000000000000     0.415470000000     0          
Zr2F     Zr     0.921250000000     0.000000000000     0.584530000000     0          
O1C      O      0.439200000000     0.606140000000     0.436000000000     0          
O1J      O      0.439200000000     0.606140000000     0.564000000000     0          
O2B      O      0.610200000000     0.440350000000     0.380600000000     0          
O2C      O      0.389800000000     0.559650000000     0.380600000000     0          
O2H      O      0.389800000000     0.440350000000     0.380600000000     0          
O3C      O      0.500000000000     0.536000000000     0.583600000000     0          
O4B      O      0.419800000000     0.464100000000     0.500000000000     0          
O4C      O      0.580200000000     0.535900000000     0.500000000000     0          
O1       O      0.439200000000     0.393860000000     0.564000000000     0          
O2       O      0.389800000000     0.440350000000     0.619400000000     0          
C1       C      0.403000000000     0.404900000000     0.605700000000     0          
C2       C      0.250000000000     0.250000000000     0.711400000000     0          
H1       H      0.250000000000     0.250000000000     0.666900000000     0          
C3       C      0.312200000000     0.312100000000     0.707000000000     0          
C4       C      0.369300000000     0.373300000000     0.641100000000     0          
C5       C      0.278600000000     0.280700000000     0.743000000000     0          
C6       C      0.345100000000     0.304500000000     0.654700000000     0          
H2       H      0.348600000000     0.278400000000     0.640900000000     0          
C7       C      0.373100000000     0.333100000000     0.621800000000     0          
H3       H      0.395400000000     0.326400000000     0.585800000000     0          
C8       C      0.278700000000     0.280300000000     0.808800000000     0          
H4       H      0.297900000000     0.300500000000     0.831200000000     0          
C9       C      0.306400000000     0.351600000000     0.725600000000     0          
H5       H      0.282900000000     0.358000000000     0.760900000000     0          
C10      C      0.335200000000     0.381000000000     0.692200000000     0          
H6       H      0.330800000000     0.407100000000     0.705600000000     0          
C11      C      0.250000000000     0.250000000000     0.842000000000     0          
C12      C      0.250000000000     0.250000000000     0.910300000000     0          
C13      C      0.250000000000     0.250000000000     0.966500000000     0          
O1E      O      0.060800000000     0.106140000000     0.564000000000     0          
O2E      O      0.110200000000     0.059650000000     0.619400000000     0          
C1E      C      0.097000000000     0.095100000000     0.605700000000     0          
C3E      C      0.187800000000     0.187900000000     0.707000000000     0          
C4E      C      0.130700000000     0.126700000000     0.641100000000     0          
C5E      C      0.221400000000     0.219300000000     0.743000000000     0          
C6E      C      0.154900000000     0.195500000000     0.654700000000     0          
H2E      H      0.151400000000     0.221600000000     0.640900000000     0          
C7E      C      0.126900000000     0.166900000000     0.621800000000     0          
H3E      H      0.104600000000     0.173600000000     0.585800000000     0          
C8E      C      0.221300000000     0.219700000000     0.808800000000     0          
H4E      H      0.202100000000     0.199500000000     0.831200000000     0          
C9E      C      0.193600000000     0.148400000000     0.725600000000     0          
H5E      H      0.217100000000     0.142000000000     0.760900000000     0          
C10E     C      0.164800000000     0.119000000000     0.692200000000     0          
H6E      H      0.169200000000     0.092900000000     0.705600000000     0          
O1I      O      0.439200000000     0.393860000000     0.436000000000     0          
C1I      C      0.403000000000     0.404900000000     0.394300000000     0          
C2I      C      0.250000000000     0.250000000000     0.288600000000     0          
H1I      H      0.250000000000     0.250000000000     0.333100000000     0          
C3I      C      0.312200000000     0.312100000000     0.293000000000     0          
C4I      C      0.369300000000     0.373300000000     0.358900000000     0          
C5I      C      0.278600000000     0.280700000000     0.257000000000     0          
C6I      C      0.345100000000     0.304500000000     0.345300000000     0          
H2I      H      0.348600000000     0.278400000000     0.359100000000     0          
C7I      C      0.373100000000     0.333100000000     0.378200000000     0          
H3I      H      0.395400000000     0.326400000000     0.414200000000     0          
C8I      C      0.278700000000     0.280300000000     0.191200000000     0          
H4I      H      0.297900000000     0.300500000000     0.168800000000     0          
C9I      C      0.306400000000     0.351600000000     0.274400000000     0          
H5I      H      0.282900000000     0.358000000000     0.239100000000     0          
C10I     C      0.335200000000     0.381000000000     0.307800000000     0          
H6I      H      0.330800000000     0.407100000000     0.294400000000     0          
C11I     C      0.250000000000     0.250000000000     0.158000000000     0          
C12I     C      0.250000000000     0.250000000000     0.089700000000     0          
C13I     C      0.250000000000     0.250000000000     0.033500000000     0          
O1L      O      0.060800000000     0.106140000000     0.436000000000     0          
O2L      O      0.110200000000     0.059650000000     0.380600000000     0          
C1L      C      0.097000000000     0.095100000000     0.394300000000     0          
C3L      C      0.187800000000     0.187900000000     0.293000000000     0          
C4L      C      0.130700000000     0.126700000000     0.358900000000     0          
C5L      C      0.221400000000     0.219300000000     0.257000000000     0          
C6L      C      0.154900000000     0.195500000000     0.345300000000     0          
H2L      H      0.151400000000     0.221600000000     0.359100000000     0          
C7L      C      0.126900000000     0.166900000000     0.378200000000     0          
H3L      H      0.104600000000     0.173600000000     0.414200000000     0          
C8L      C      0.221300000000     0.219700000000     0.191200000000     0          
H4L      H      0.202100000000     0.199500000000     0.168800000000     0          
C9L      C      0.193600000000     0.148400000000     0.274400000000     0          
H5L      H      0.217100000000     0.142000000000     0.239100000000     0          
C10L     C      0.164800000000     0.119000000000     0.307800000000     0          
H6L      H      0.169200000000     0.092900000000     0.294400000000     0          
Zr1E     Zr     0.000000000000     0.073090000000     0.500000000000     0          
Zr2D     Zr     0.078750000000     0.000000000000     0.415470000000     0          
Zr2F     Zr     0.078750000000     0.000000000000     0.584530000000     0          
O1C      O      0.560800000000     0.393860000000     0.436000000000     0          
O1J      O      0.560800000000     0.393860000000     0.564000000000     0          
O3C      O      0.500000000000     0.464000000000     0.583600000000     0          
O5       O      0.437500000000     0.500000000000     0.688200000000     0          
O6       O      0.323700000000     0.500000000000     0.575000000000     0          
C1       C      0.597000000000     0.404900000000     0.394300000000     0          
C2       C      0.750000000000     0.250000000000     0.288600000000     0          
H1       H      0.750000000000     0.250000000000     0.333100000000     0          
C3       C      0.687800000000     0.312100000000     0.293000000000     0          
C4       C      0.630700000000     0.373300000000     0.358900000000     0          
C5       C      0.721400000000     0.280700000000     0.257000000000     0          
C6       C      0.654900000000     0.304500000000     0.345300000000     0          
H2       H      0.651400000000     0.278400000000     0.359100000000     0          
C7       C      0.626900000000     0.333100000000     0.378200000000     0          
H3       H      0.604600000000     0.326400000000     0.414200000000     0          
C8       C      0.721300000000     0.280300000000     0.191200000000     0          
H4       H      0.702100000000     0.300500000000     0.168800000000     0          
C9       C      0.693600000000     0.351600000000     0.274400000000     0          
H5       H      0.717100000000     0.358000000000     0.239100000000     0          
C10      C      0.664800000000     0.381000000000     0.307800000000     0          
H6       H      0.669200000000     0.407100000000     0.294400000000     0          
C11      C      0.750000000000     0.250000000000     0.158000000000     0          
C12      C      0.750000000000     0.250000000000     0.089700000000     0          
C13      C      0.750000000000     0.250000000000     0.033500000000     0          
O1E      O      0.939200000000     0.106140000000     0.436000000000     0          
O2E      O      0.889800000000     0.059650000000     0.380600000000     0          
C1E      C      0.903000000000     0.095100000000     0.394300000000     0          
C3E      C      0.812200000000     0.187900000000     0.293000000000     0          
C4E      C      0.869300000000     0.126700000000     0.358900000000     0          
C5E      C      0.778600000000     0.219300000000     0.257000000000     0          
C6E      C      0.845100000000     0.195500000000     0.345300000000     0          
H2E      H      0.848600000000     0.221600000000     0.359100000000     0          
C7E      C      0.873100000000     0.166900000000     0.378200000000     0          
H3E      H      0.895400000000     0.173600000000     0.414200000000     0          
C8E      C      0.778700000000     0.219700000000     0.191200000000     0          
H4E      H      0.797900000000     0.199500000000     0.168800000000     0          
C9E      C      0.806400000000     0.148400000000     0.274400000000     0          
H5E      H      0.782900000000     0.142000000000     0.239100000000     0          
C10E     C      0.835200000000     0.119000000000     0.307800000000     0          
H6E      H      0.830800000000     0.092900000000     0.294400000000     0          
O2I      O      0.610200000000     0.440350000000     0.619400000000     0          
C1I      C      0.597000000000     0.404900000000     0.605700000000     0          
C2I      C      0.750000000000     0.250000000000     0.711400000000     0          
H1I      H      0.750000000000     0.250000000000     0.666900000000     0          
C3I      C      0.687800000000     0.312100000000     0.707000000000     0          
C4I      C      0.630700000000     0.373300000000     0.641100000000     0          
C5I      C      0.721400000000     0.280700000000     0.743000000000     0          
C6I      C      0.654900000000     0.304500000000     0.654700000000     0          
H2I      H      0.651400000000     0.278400000000     0.640900000000     0          
C7I      C      0.626900000000     0.333100000000     0.621800000000     0          
H3I      H      0.604600000000     0.326400000000     0.585800000000     0          
C8I      C      0.721300000000     0.280300000000     0.808800000000     0          
H4I      H      0.702100000000     0.300500000000     0.831200000000     0          
C9I      C      0.693600000000     0.351600000000     0.725600000000     0          
H5I      H      0.717100000000     0.358000000000     0.760900000000     0          
C10I     C      0.664800000000     0.381000000000     0.692200000000     0          
H6I      H      0.669200000000     0.407100000000     0.705600000000     0          
C11I     C      0.750000000000     0.250000000000     0.842000000000     0          
C12I     C      0.750000000000     0.250000000000     0.910300000000     0          
C13I     C      0.750000000000     0.250000000000     0.966500000000     0          
O1L      O      0.939200000000     0.106140000000     0.564000000000     0          
O2L      O      0.889800000000     0.059650000000     0.619400000000     0          
C1L      C      0.903000000000     0.095100000000     0.605700000000     0          
C3L      C      0.812200000000     0.187900000000     0.707000000000     0          
C4L      C      0.869300000000     0.126700000000     0.641100000000     0          
C5L      C      0.778600000000     0.219300000000     0.743000000000     0          
C6L      C      0.845100000000     0.195500000000     0.654700000000     0          
H2L      H      0.848600000000     0.221600000000     0.640900000000     0          
C7L      C      0.873100000000     0.166900000000     0.621800000000     0          
H3L      H      0.895400000000     0.173600000000     0.585800000000     0          
C8L      C      0.778700000000     0.219700000000     0.808800000000     0          
H4L      H      0.797900000000     0.199500000000     0.831200000000     0          
C9L      C      0.806400000000     0.148400000000     0.725600000000     0          
H5L      H      0.782900000000     0.142000000000     0.760900000000     0          
C10L     C      0.835200000000     0.119000000000     0.692200000000     0          
H6L      H      0.830800000000     0.092900000000     0.705600000000     0          
O5A      O      0.562500000000     0.500000000000     0.688200000000     0          
O6A      O      0.676300000000     0.500000000000     0.575000000000     0          
O2H      O      0.389800000000     0.559650000000     0.619400000000     0          
C1       C      0.403000000000     0.595100000000     0.394300000000     0          
C2       C      0.250000000000     0.750000000000     0.288600000000     0          
H1       H      0.250000000000     0.750000000000     0.333100000000     0          
C3       C      0.312200000000     0.687900000000     0.293000000000     0          
C4       C      0.369300000000     0.626700000000     0.358900000000     0          
C5       C      0.278600000000     0.719300000000     0.257000000000     0          
C6       C      0.345100000000     0.695500000000     0.345300000000     0          
H2       H      0.348600000000     0.721600000000     0.359100000000     0          
C7       C      0.373100000000     0.666900000000     0.378200000000     0          
H3       H      0.395400000000     0.673600000000     0.414200000000     0          
C8       C      0.278700000000     0.719700000000     0.191200000000     0          
H4       H      0.297900000000     0.699500000000     0.168800000000     0          
C9       C      0.306400000000     0.648400000000     0.274400000000     0          
H5       H      0.282900000000     0.642000000000     0.239100000000     0          
C10      C      0.335200000000     0.619000000000     0.307800000000     0          
H6       H      0.330800000000     0.592900000000     0.294400000000     0          
C11      C      0.250000000000     0.750000000000     0.158000000000     0          
C12      C      0.250000000000     0.750000000000     0.089700000000     0          
C13      C      0.250000000000     0.750000000000     0.033500000000     0          
O1E      O      0.060800000000     0.893860000000     0.436000000000     0          
O2E      O      0.110200000000     0.940350000000     0.380600000000     0          
C1E      C      0.097000000000     0.904900000000     0.394300000000     0          
C3E      C      0.187800000000     0.812100000000     0.293000000000     0          
C4E      C      0.130700000000     0.873300000000     0.358900000000     0          
C5E      C      0.221400000000     0.780700000000     0.257000000000     0          
C6E      C      0.154900000000     0.804500000000     0.345300000000     0          
H2E      H      0.151400000000     0.778400000000     0.359100000000     0          
C7E      C      0.126900000000     0.833100000000     0.378200000000     0          
H3E      H      0.104600000000     0.826400000000     0.414200000000     0          
C8E      C      0.221300000000     0.780300000000     0.191200000000     0          
H4E      H      0.202100000000     0.800500000000     0.168800000000     0          
C9E      C      0.193600000000     0.851600000000     0.274400000000     0          
H5E      H      0.217100000000     0.858000000000     0.239100000000     0          
C10E     C      0.164800000000     0.881000000000     0.307800000000     0          
H6E      H      0.169200000000     0.907100000000     0.294400000000     0          
C1I      C      0.403000000000     0.595100000000     0.605700000000     0          
C2I      C      0.250000000000     0.750000000000     0.711400000000     0          
H1I      H      0.250000000000     0.750000000000     0.666900000000     0          
C3I      C      0.312200000000     0.687900000000     0.707000000000     0          
C4I      C      0.369300000000     0.626700000000     0.641100000000     0          
C5I      C      0.278600000000     0.719300000000     0.743000000000     0          
C6I      C      0.345100000000     0.695500000000     0.654700000000     0          
H2I      H      0.348600000000     0.721600000000     0.640900000000     0          
C7I      C      0.373100000000     0.666900000000     0.621800000000     0          
H3I      H      0.395400000000     0.673600000000     0.585800000000     0          
C8I      C      0.278700000000     0.719700000000     0.808800000000     0          
H4I      H      0.297900000000     0.699500000000     0.831200000000     0          
C9I      C      0.306400000000     0.648400000000     0.725600000000     0          
H5I      H      0.282900000000     0.642000000000     0.760900000000     0          
C10I     C      0.335200000000     0.619000000000     0.692200000000     0          
H6I      H      0.330800000000     0.592900000000     0.705600000000     0          
C11I     C      0.250000000000     0.750000000000     0.842000000000     0          
C12I     C      0.250000000000     0.750000000000     0.910300000000     0          
C13I     C      0.250000000000     0.750000000000     0.966500000000     0          
O1L      O      0.060800000000     0.893860000000     0.564000000000     0          
O2L      O      0.110200000000     0.940350000000     0.619400000000     0          
C1L      C      0.097000000000     0.904900000000     0.605700000000     0          
C3L      C      0.187800000000     0.812100000000     0.707000000000     0          
C4L      C      0.130700000000     0.873300000000     0.641100000000     0          
C5L      C      0.221400000000     0.780700000000     0.743000000000     0          
C6L      C      0.154900000000     0.804500000000     0.654700000000     0          
H2L      H      0.151400000000     0.778400000000     0.640900000000     0          
C7L      C      0.126900000000     0.833100000000     0.621800000000     0          
H3L      H      0.104600000000     0.826400000000     0.585800000000     0          
C8L      C      0.221300000000     0.780300000000     0.808800000000     0          
H4L      H      0.202100000000     0.800500000000     0.831200000000     0          
C9L      C      0.193600000000     0.851600000000     0.725600000000     0          
H5L      H      0.217100000000     0.858000000000     0.760900000000     0          
C10L     C      0.164800000000     0.881000000000     0.692200000000     0          
H6L      H      0.169200000000     0.907100000000     0.705600000000     0          
O3       O      0.000000000000     0.036000000000     0.416400000000     0          
O4       O      0.919800000000     0.035900000000     0.500000000000     0          
O5       O      0.937500000000     0.000000000000     0.311800000000     0          
O6       O      0.823700000000     0.000000000000     0.425000000000     0          
O3A      O      0.000000000000     0.964000000000     0.416400000000     0          
O4A      O      0.080200000000     0.964100000000     0.500000000000     0          
O5A      O      0.062500000000     0.000000000000     0.311800000000     0          
O6A      O      0.176300000000     0.000000000000     0.425000000000     0          
O3C      O      0.000000000000     0.036000000000     0.583600000000     0          
O4B      O      0.919800000000     0.964100000000     0.500000000000     0          
O4C      O      0.080200000000     0.035900000000     0.500000000000     0          
O3C      O      0.000000000000     0.964000000000     0.583600000000     0          
O5       O      0.937500000000     0.000000000000     0.688200000000     0          
O6       O      0.823700000000     0.000000000000     0.575000000000     0          
O5A      O      0.062500000000     0.000000000000     0.688200000000     0          
O6A      O      0.176300000000     0.000000000000     0.575000000000     0          


