data_HICNOZ

_audit_creation_method RASPA-1.0
_audit_creation_date 2020-11-2
_audit_author_name 'Rocio Bueno-Perez'

_cell_length_a    20.2175
_cell_length_b    34.4927
_cell_length_c    21.0753
_cell_angle_alpha 90
_cell_angle_beta  90
_cell_angle_gamma 90
_cell_volume      14697

_symmetry_cell_setting          orthorhombic
_symmetry_space_group_name_Hall 'P 1'
_symmetry_space_group_name_H-M  'P 1'
_symmetry_Int_Tables_number     1

_symmetry_equiv_pos_as_xyz 'x,y,z'

loop_
_atom_site_label
_atom_site_type_symbol
_atom_site_fract_x
_atom_site_fract_y
_atom_site_fract_z
_atom_site_charge
O3       O      0.121940000000     0.441150000000     0.381690000000     0          
O4       O      0.066440000000     0.396660000000     0.437570000000     0          
C1       C      0.105600000000     0.406390000000     0.394700000000     0          
C2       C      0.137600000000     0.375150000000     0.358500000000     0          
C3       C      0.128600000000     0.337220000000     0.377500000000     0          
H1       H      0.102100000000     0.331600000000     0.412400000000     0          
C4       C      0.159100000000     0.307600000000     0.344400000000     0          
H2       H      0.155900000000     0.282300000000     0.359400000000     0          
C5       C      0.194200000000     0.314790000000     0.289700000000     0          
C6       C      0.203400000000     0.352620000000     0.271600000000     0          
H3       H      0.229300000000     0.358200000000     0.236300000000     0          
C7       C      0.174800000000     0.382110000000     0.305000000000     0          
H4       H      0.180600000000     0.407500000000     0.291300000000     0          
C8       C      0.224700000000     0.281490000000     0.254000000000     0          
C10      C      0.222700000000     0.281600000000     0.188000000000     0          
H6       H      0.203700000000     0.302100000000     0.166000000000     0          
Zr1      Zr     0.000000000000     0.429310000000     0.500000000000     0          
Zr2      Zr     0.087160000000     0.500000000000     0.416040000000     0          
O1       O      0.000000000000     0.464520000000     0.415600000000     0          
O2       O      0.087700000000     0.465760000000     0.500000000000     0          
C9       C      0.250000000000     0.250000000000     0.286100000000     0          
H5       H      0.250000000000     0.250000000000     0.330200000000     0          
C11      C      0.250000000000     0.250000000000     0.155800000000     0          
C12      C      0.250000000000     0.250000000000     0.089000000000     0          
C13      C      0.250000000000     0.250000000000     0.032200000000     0          
O3       O      0.878060000000     0.558850000000     0.381690000000     0          
O4       O      0.933560000000     0.603340000000     0.437570000000     0          
C1       C      0.894400000000     0.593610000000     0.394700000000     0          
C2       C      0.862400000000     0.624850000000     0.358500000000     0          
C3       C      0.871400000000     0.662780000000     0.377500000000     0          
H1       H      0.897900000000     0.668400000000     0.412400000000     0          
C4       C      0.840900000000     0.692400000000     0.344400000000     0          
H2       H      0.844100000000     0.717700000000     0.359400000000     0          
C5       C      0.805800000000     0.685210000000     0.289700000000     0          
C6       C      0.796600000000     0.647380000000     0.271600000000     0          
H3       H      0.770700000000     0.641800000000     0.236300000000     0          
C7       C      0.825200000000     0.617890000000     0.305000000000     0          
H4       H      0.819400000000     0.592500000000     0.291300000000     0          
C8       C      0.775300000000     0.718510000000     0.254000000000     0          
C10      C      0.777300000000     0.718400000000     0.188000000000     0          
H6       H      0.796300000000     0.697900000000     0.166000000000     0          
Zr1      Zr     0.000000000000     0.570690000000     0.500000000000     0          
Zr2      Zr     0.912840000000     0.500000000000     0.416040000000     0          
O1       O      0.000000000000     0.535480000000     0.415600000000     0          
O2       O      0.912300000000     0.534240000000     0.500000000000     0          
C9       C      0.750000000000     0.750000000000     0.286100000000     0          
H5       H      0.750000000000     0.750000000000     0.330200000000     0          
C11      C      0.750000000000     0.750000000000     0.155800000000     0          
C12      C      0.750000000000     0.750000000000     0.089000000000     0          
C13      C      0.750000000000     0.750000000000     0.032200000000     0          
O3       O      0.121940000000     0.558850000000     0.618310000000     0          
O4       O      0.066440000000     0.603340000000     0.562430000000     0          
C1       C      0.105600000000     0.593610000000     0.605300000000     0          
C2       C      0.137600000000     0.624850000000     0.641500000000     0          
C3       C      0.128600000000     0.662780000000     0.622500000000     0          
H1       H      0.102100000000     0.668400000000     0.587600000000     0          
C4       C      0.159100000000     0.692400000000     0.655600000000     0          
H2       H      0.155900000000     0.717700000000     0.640600000000     0          
C5       C      0.194200000000     0.685210000000     0.710300000000     0          
C6       C      0.203400000000     0.647380000000     0.728400000000     0          
H3       H      0.229300000000     0.641800000000     0.763700000000     0          
C7       C      0.174800000000     0.617890000000     0.695000000000     0          
H4       H      0.180600000000     0.592500000000     0.708700000000     0          
C8       C      0.224700000000     0.718510000000     0.746000000000     0          
C10      C      0.222700000000     0.718400000000     0.812000000000     0          
H6       H      0.203700000000     0.697900000000     0.834000000000     0          
Zr2      Zr     0.087160000000     0.500000000000     0.583960000000     0          
O1       O      0.000000000000     0.535480000000     0.584400000000     0          
O2       O      0.087700000000     0.534240000000     0.500000000000     0          
C9       C      0.250000000000     0.750000000000     0.713900000000     0          
H5       H      0.250000000000     0.750000000000     0.669800000000     0          
C11      C      0.250000000000     0.750000000000     0.844200000000     0          
C12      C      0.250000000000     0.750000000000     0.911000000000     0          
C13      C      0.250000000000     0.750000000000     0.967800000000     0          
O3       O      0.878060000000     0.441150000000     0.618310000000     0          
O4       O      0.933560000000     0.396660000000     0.562430000000     0          
C1       C      0.894400000000     0.406390000000     0.605300000000     0          
C2       C      0.862400000000     0.375150000000     0.641500000000     0          
C3       C      0.871400000000     0.337220000000     0.622500000000     0          
H1       H      0.897900000000     0.331600000000     0.587600000000     0          
C4       C      0.840900000000     0.307600000000     0.655600000000     0          
H2       H      0.844100000000     0.282300000000     0.640600000000     0          
C5       C      0.805800000000     0.314790000000     0.710300000000     0          
C6       C      0.796600000000     0.352620000000     0.728400000000     0          
H3       H      0.770700000000     0.358200000000     0.763700000000     0          
C7       C      0.825200000000     0.382110000000     0.695000000000     0          
H4       H      0.819400000000     0.407500000000     0.708700000000     0          
C8       C      0.775300000000     0.281490000000     0.746000000000     0          
C10      C      0.777300000000     0.281600000000     0.812000000000     0          
H6       H      0.796300000000     0.302100000000     0.834000000000     0          
Zr2      Zr     0.912840000000     0.500000000000     0.583960000000     0          
O1       O      0.000000000000     0.464520000000     0.584400000000     0          
O2       O      0.912300000000     0.465760000000     0.500000000000     0          
C9       C      0.750000000000     0.250000000000     0.713900000000     0          
H5       H      0.750000000000     0.250000000000     0.669800000000     0          
C11      C      0.750000000000     0.250000000000     0.844200000000     0          
C12      C      0.750000000000     0.250000000000     0.911000000000     0          
C13      C      0.750000000000     0.250000000000     0.967800000000     0          
O3       O      0.878060000000     0.558850000000     0.618310000000     0          
O4       O      0.933560000000     0.603340000000     0.562430000000     0          
C1       C      0.894400000000     0.593610000000     0.605300000000     0          
C2       C      0.862400000000     0.624850000000     0.641500000000     0          
C3       C      0.871400000000     0.662780000000     0.622500000000     0          
H1       H      0.897900000000     0.668400000000     0.587600000000     0          
C4       C      0.840900000000     0.692400000000     0.655600000000     0          
H2       H      0.844100000000     0.717700000000     0.640600000000     0          
C5       C      0.805800000000     0.685210000000     0.710300000000     0          
C6       C      0.796600000000     0.647380000000     0.728400000000     0          
H3       H      0.770700000000     0.641800000000     0.763700000000     0          
C7       C      0.825200000000     0.617890000000     0.695000000000     0          
H4       H      0.819400000000     0.592500000000     0.708700000000     0          
C8       C      0.775300000000     0.718510000000     0.746000000000     0          
C10      C      0.777300000000     0.718400000000     0.812000000000     0          
H6       H      0.796300000000     0.697900000000     0.834000000000     0          
C9       C      0.750000000000     0.750000000000     0.713900000000     0          
H5       H      0.750000000000     0.750000000000     0.669800000000     0          
C11      C      0.750000000000     0.750000000000     0.844200000000     0          
C12      C      0.750000000000     0.750000000000     0.911000000000     0          
C13      C      0.750000000000     0.750000000000     0.967800000000     0          
O3       O      0.121940000000     0.441150000000     0.618310000000     0          
O4       O      0.066440000000     0.396660000000     0.562430000000     0          
C1       C      0.105600000000     0.406390000000     0.605300000000     0          
C2       C      0.137600000000     0.375150000000     0.641500000000     0          
C3       C      0.128600000000     0.337220000000     0.622500000000     0          
H1       H      0.102100000000     0.331600000000     0.587600000000     0          
C4       C      0.159100000000     0.307600000000     0.655600000000     0          
H2       H      0.155900000000     0.282300000000     0.640600000000     0          
C5       C      0.194200000000     0.314790000000     0.710300000000     0          
C6       C      0.203400000000     0.352620000000     0.728400000000     0          
H3       H      0.229300000000     0.358200000000     0.763700000000     0          
C7       C      0.174800000000     0.382110000000     0.695000000000     0          
H4       H      0.180600000000     0.407500000000     0.708700000000     0          
C8       C      0.224700000000     0.281490000000     0.746000000000     0          
C10      C      0.222700000000     0.281600000000     0.812000000000     0          
H6       H      0.203700000000     0.302100000000     0.834000000000     0          
C9       C      0.250000000000     0.250000000000     0.713900000000     0          
H5       H      0.250000000000     0.250000000000     0.669800000000     0          
C11      C      0.250000000000     0.250000000000     0.844200000000     0          
C12      C      0.250000000000     0.250000000000     0.911000000000     0          
C13      C      0.250000000000     0.250000000000     0.967800000000     0          
O3       O      0.878060000000     0.441150000000     0.381690000000     0          
O4       O      0.933560000000     0.396660000000     0.437570000000     0          
C1       C      0.894400000000     0.406390000000     0.394700000000     0          
C2       C      0.862400000000     0.375150000000     0.358500000000     0          
C3       C      0.871400000000     0.337220000000     0.377500000000     0          
H1       H      0.897900000000     0.331600000000     0.412400000000     0          
C4       C      0.840900000000     0.307600000000     0.344400000000     0          
H2       H      0.844100000000     0.282300000000     0.359400000000     0          
C5       C      0.805800000000     0.314790000000     0.289700000000     0          
C6       C      0.796600000000     0.352620000000     0.271600000000     0          
H3       H      0.770700000000     0.358200000000     0.236300000000     0          
C7       C      0.825200000000     0.382110000000     0.305000000000     0          
H4       H      0.819400000000     0.407500000000     0.291300000000     0          
C8       C      0.775300000000     0.281490000000     0.254000000000     0          
C10      C      0.777300000000     0.281600000000     0.188000000000     0          
H6       H      0.796300000000     0.302100000000     0.166000000000     0          
C9       C      0.750000000000     0.250000000000     0.286100000000     0          
H5       H      0.750000000000     0.250000000000     0.330200000000     0          
C11      C      0.750000000000     0.250000000000     0.155800000000     0          
C12      C      0.750000000000     0.250000000000     0.089000000000     0          
C13      C      0.750000000000     0.250000000000     0.032200000000     0          
O3       O      0.121940000000     0.558850000000     0.381690000000     0          
O4       O      0.066440000000     0.603340000000     0.437570000000     0          
C1       C      0.105600000000     0.593610000000     0.394700000000     0          
C2       C      0.137600000000     0.624850000000     0.358500000000     0          
C3       C      0.128600000000     0.662780000000     0.377500000000     0          
H1       H      0.102100000000     0.668400000000     0.412400000000     0          
C4       C      0.159100000000     0.692400000000     0.344400000000     0          
H2       H      0.155900000000     0.717700000000     0.359400000000     0          
C5       C      0.194200000000     0.685210000000     0.289700000000     0          
C6       C      0.203400000000     0.647380000000     0.271600000000     0          
H3       H      0.229300000000     0.641800000000     0.236300000000     0          
C7       C      0.174800000000     0.617890000000     0.305000000000     0          
H4       H      0.180600000000     0.592500000000     0.291300000000     0          
C8       C      0.224700000000     0.718510000000     0.254000000000     0          
C10      C      0.222700000000     0.718400000000     0.188000000000     0          
H6       H      0.203700000000     0.697900000000     0.166000000000     0          
C9       C      0.250000000000     0.750000000000     0.286100000000     0          
H5       H      0.250000000000     0.750000000000     0.330200000000     0          
C11      C      0.250000000000     0.750000000000     0.155800000000     0          
C12      C      0.250000000000     0.750000000000     0.089000000000     0          
C13      C      0.250000000000     0.750000000000     0.032200000000     0          
O3       O      0.621940000000     0.941150000000     0.381690000000     0          
O4       O      0.566440000000     0.896660000000     0.437570000000     0          
C1       C      0.605600000000     0.906390000000     0.394700000000     0          
C2       C      0.637600000000     0.875150000000     0.358500000000     0          
C3       C      0.628600000000     0.837220000000     0.377500000000     0          
H1       H      0.602100000000     0.831600000000     0.412400000000     0          
C4       C      0.659100000000     0.807600000000     0.344400000000     0          
H2       H      0.655900000000     0.782300000000     0.359400000000     0          
C5       C      0.694200000000     0.814790000000     0.289700000000     0          
C6       C      0.703400000000     0.852620000000     0.271600000000     0          
H3       H      0.729300000000     0.858200000000     0.236300000000     0          
C7       C      0.674800000000     0.882110000000     0.305000000000     0          
H4       H      0.680600000000     0.907500000000     0.291300000000     0          
C8       C      0.724700000000     0.781490000000     0.254000000000     0          
C10      C      0.722700000000     0.781600000000     0.188000000000     0          
H6       H      0.703700000000     0.802100000000     0.166000000000     0          
Zr1      Zr     0.500000000000     0.929310000000     0.500000000000     0          
Zr2      Zr     0.587160000000     0.000000000000     0.416040000000     0          
O1       O      0.500000000000     0.964520000000     0.415600000000     0          
O2       O      0.587700000000     0.965760000000     0.500000000000     0          
O3       O      0.378060000000     0.058850000000     0.381690000000     0          
O4       O      0.433560000000     0.103340000000     0.437570000000     0          
C1       C      0.394400000000     0.093610000000     0.394700000000     0          
C2       C      0.362400000000     0.124850000000     0.358500000000     0          
C3       C      0.371400000000     0.162780000000     0.377500000000     0          
H1       H      0.397900000000     0.168400000000     0.412400000000     0          
C4       C      0.340900000000     0.192400000000     0.344400000000     0          
H2       H      0.344100000000     0.217700000000     0.359400000000     0          
C5       C      0.305800000000     0.185210000000     0.289700000000     0          
C6       C      0.296600000000     0.147380000000     0.271600000000     0          
H3       H      0.270700000000     0.141800000000     0.236300000000     0          
C7       C      0.325200000000     0.117890000000     0.305000000000     0          
H4       H      0.319400000000     0.092500000000     0.291300000000     0          
C8       C      0.275300000000     0.218510000000     0.254000000000     0          
C10      C      0.277300000000     0.218400000000     0.188000000000     0          
H6       H      0.296300000000     0.197900000000     0.166000000000     0          
Zr1      Zr     0.500000000000     0.070690000000     0.500000000000     0          
Zr2      Zr     0.412840000000     0.000000000000     0.416040000000     0          
O1       O      0.500000000000     0.035480000000     0.415600000000     0          
O2       O      0.412300000000     0.034240000000     0.500000000000     0          
O3       O      0.621940000000     0.058850000000     0.618310000000     0          
O4       O      0.566440000000     0.103340000000     0.562430000000     0          
C1       C      0.605600000000     0.093610000000     0.605300000000     0          
C2       C      0.637600000000     0.124850000000     0.641500000000     0          
C3       C      0.628600000000     0.162780000000     0.622500000000     0          
H1       H      0.602100000000     0.168400000000     0.587600000000     0          
C4       C      0.659100000000     0.192400000000     0.655600000000     0          
H2       H      0.655900000000     0.217700000000     0.640600000000     0          
C5       C      0.694200000000     0.185210000000     0.710300000000     0          
C6       C      0.703400000000     0.147380000000     0.728400000000     0          
H3       H      0.729300000000     0.141800000000     0.763700000000     0          
C7       C      0.674800000000     0.117890000000     0.695000000000     0          
H4       H      0.680600000000     0.092500000000     0.708700000000     0          
C8       C      0.724700000000     0.218510000000     0.746000000000     0          
C10      C      0.722700000000     0.218400000000     0.812000000000     0          
H6       H      0.703700000000     0.197900000000     0.834000000000     0          
Zr2      Zr     0.587160000000     0.000000000000     0.583960000000     0          
O1       O      0.500000000000     0.035480000000     0.584400000000     0          
O2       O      0.587700000000     0.034240000000     0.500000000000     0          
O3       O      0.378060000000     0.941150000000     0.618310000000     0          
O4       O      0.433560000000     0.896660000000     0.562430000000     0          
C1       C      0.394400000000     0.906390000000     0.605300000000     0          
C2       C      0.362400000000     0.875150000000     0.641500000000     0          
C3       C      0.371400000000     0.837220000000     0.622500000000     0          
H1       H      0.397900000000     0.831600000000     0.587600000000     0          
C4       C      0.340900000000     0.807600000000     0.655600000000     0          
H2       H      0.344100000000     0.782300000000     0.640600000000     0          
C5       C      0.305800000000     0.814790000000     0.710300000000     0          
C6       C      0.296600000000     0.852620000000     0.728400000000     0          
H3       H      0.270700000000     0.858200000000     0.763700000000     0          
C7       C      0.325200000000     0.882110000000     0.695000000000     0          
H4       H      0.319400000000     0.907500000000     0.708700000000     0          
C8       C      0.275300000000     0.781490000000     0.746000000000     0          
C10      C      0.277300000000     0.781600000000     0.812000000000     0          
H6       H      0.296300000000     0.802100000000     0.834000000000     0          
Zr2      Zr     0.412840000000     0.000000000000     0.583960000000     0          
O1       O      0.500000000000     0.964520000000     0.584400000000     0          
O2       O      0.412300000000     0.965760000000     0.500000000000     0          
O3       O      0.378060000000     0.058850000000     0.618310000000     0          
O4       O      0.433560000000     0.103340000000     0.562430000000     0          
C1       C      0.394400000000     0.093610000000     0.605300000000     0          
C2       C      0.362400000000     0.124850000000     0.641500000000     0          
C3       C      0.371400000000     0.162780000000     0.622500000000     0          
H1       H      0.397900000000     0.168400000000     0.587600000000     0          
C4       C      0.340900000000     0.192400000000     0.655600000000     0          
H2       H      0.344100000000     0.217700000000     0.640600000000     0          
C5       C      0.305800000000     0.185210000000     0.710300000000     0          
C6       C      0.296600000000     0.147380000000     0.728400000000     0          
H3       H      0.270700000000     0.141800000000     0.763700000000     0          
C7       C      0.325200000000     0.117890000000     0.695000000000     0          
H4       H      0.319400000000     0.092500000000     0.708700000000     0          
C8       C      0.275300000000     0.218510000000     0.746000000000     0          
C10      C      0.277300000000     0.218400000000     0.812000000000     0          
H6       H      0.296300000000     0.197900000000     0.834000000000     0          
O3       O      0.621940000000     0.941150000000     0.618310000000     0          
O4       O      0.566440000000     0.896660000000     0.562430000000     0          
C1       C      0.605600000000     0.906390000000     0.605300000000     0          
C2       C      0.637600000000     0.875150000000     0.641500000000     0          
C3       C      0.628600000000     0.837220000000     0.622500000000     0          
H1       H      0.602100000000     0.831600000000     0.587600000000     0          
C4       C      0.659100000000     0.807600000000     0.655600000000     0          
H2       H      0.655900000000     0.782300000000     0.640600000000     0          
C5       C      0.694200000000     0.814790000000     0.710300000000     0          
C6       C      0.703400000000     0.852620000000     0.728400000000     0          
H3       H      0.729300000000     0.858200000000     0.763700000000     0          
C7       C      0.674800000000     0.882110000000     0.695000000000     0          
H4       H      0.680600000000     0.907500000000     0.708700000000     0          
C8       C      0.724700000000     0.781490000000     0.746000000000     0          
C10      C      0.722700000000     0.781600000000     0.812000000000     0          
H6       H      0.703700000000     0.802100000000     0.834000000000     0          
O3       O      0.378060000000     0.941150000000     0.381690000000     0          
O4       O      0.433560000000     0.896660000000     0.437570000000     0          
C1       C      0.394400000000     0.906390000000     0.394700000000     0          
C2       C      0.362400000000     0.875150000000     0.358500000000     0          
C3       C      0.371400000000     0.837220000000     0.377500000000     0          
H1       H      0.397900000000     0.831600000000     0.412400000000     0          
C4       C      0.340900000000     0.807600000000     0.344400000000     0          
H2       H      0.344100000000     0.782300000000     0.359400000000     0          
C5       C      0.305800000000     0.814790000000     0.289700000000     0          
C6       C      0.296600000000     0.852620000000     0.271600000000     0          
H3       H      0.270700000000     0.858200000000     0.236300000000     0          
C7       C      0.325200000000     0.882110000000     0.305000000000     0          
H4       H      0.319400000000     0.907500000000     0.291300000000     0          
C8       C      0.275300000000     0.781490000000     0.254000000000     0          
C10      C      0.277300000000     0.781600000000     0.188000000000     0          
H6       H      0.296300000000     0.802100000000     0.166000000000     0          
O3       O      0.621940000000     0.058850000000     0.381690000000     0          
O4       O      0.566440000000     0.103340000000     0.437570000000     0          
C1       C      0.605600000000     0.093610000000     0.394700000000     0          
C2       C      0.637600000000     0.124850000000     0.358500000000     0          
C3       C      0.628600000000     0.162780000000     0.377500000000     0          
H1       H      0.602100000000     0.168400000000     0.412400000000     0          
C4       C      0.659100000000     0.192400000000     0.344400000000     0          
H2       H      0.655900000000     0.217700000000     0.359400000000     0          
C5       C      0.694200000000     0.185210000000     0.289700000000     0          
C6       C      0.703400000000     0.147380000000     0.271600000000     0          
H3       H      0.729300000000     0.141800000000     0.236300000000     0          
C7       C      0.674800000000     0.117890000000     0.305000000000     0          
H4       H      0.680600000000     0.092500000000     0.291300000000     0          
C8       C      0.724700000000     0.218510000000     0.254000000000     0          
C10      C      0.722700000000     0.218400000000     0.188000000000     0          
H6       H      0.703700000000     0.197900000000     0.166000000000     0          


