data_HICNUF

_audit_creation_method RASPA-1.0
_audit_creation_date 2020-11-2
_audit_author_name 'Rocio Bueno-Perez'

_cell_length_a    23.1484
_cell_length_b    33.0429
_cell_length_c    20.6518
_cell_angle_alpha 90
_cell_angle_beta  90
_cell_angle_gamma 90
_cell_volume      15796.4

_symmetry_cell_setting          triclinic
_symmetry_space_group_name_Hall 'P 1'
_symmetry_space_group_name_H-M  'P 1'
_symmetry_Int_Tables_number     1

_symmetry_equiv_pos_as_xyz 'x,y,z'

loop_
_atom_site_label
_atom_site_type_symbol
_atom_site_fract_x
_atom_site_fract_y
_atom_site_fract_z
_atom_site_charge
O1       O      0.558100000000     0.607610000000     0.565800000000     0          
O2       O      0.608400000000     0.559770000000     0.618900000000     0          
C3       C      0.595800000000     0.596200000000     0.604900000000     0          
C4       C      0.628900000000     0.627300000000     0.641700000000     0          
C5       C      0.661600000000     0.618200000000     0.693400000000     0          
H6       H      0.662700000000     0.591500000000     0.707800000000     0          
C7       C      0.693100000000     0.646400000000     0.725300000000     0          
H8       H      0.717800000000     0.639200000000     0.758900000000     0          
C9       C      0.687200000000     0.688100000000     0.705600000000     0          
C10      C      0.653600000000     0.697800000000     0.653300000000     0          
H11      H      0.650100000000     0.724600000000     0.640200000000     0          
C12      C      0.625300000000     0.668000000000     0.620400000000     0          
H13      H      0.603500000000     0.674500000000     0.584000000000     0          
C14      C      0.719700000000     0.720900000000     0.742700000000     0          
C15      C      0.722800000000     0.720200000000     0.807100000000     0          
H16      H      0.705900000000     0.698800000000     0.829400000000     0          
H17      H      0.066700000000     0.417900000000     0.462100000000     0          
O18      O      0.058100000000     0.107610000000     0.565800000000     0          
O19      O      0.108400000000     0.059770000000     0.618900000000     0          
C20      C      0.095800000000     0.096200000000     0.604900000000     0          
C21      C      0.128900000000     0.127300000000     0.641700000000     0          
C22      C      0.161600000000     0.118200000000     0.693400000000     0          
H23      H      0.162700000000     0.091500000000     0.707800000000     0          
C24      C      0.193100000000     0.146400000000     0.725300000000     0          
H25      H      0.217800000000     0.139200000000     0.758900000000     0          
C26      C      0.187200000000     0.188100000000     0.705600000000     0          
C27      C      0.153600000000     0.197800000000     0.653300000000     0          
H28      H      0.150100000000     0.224600000000     0.640200000000     0          
C29      C      0.125300000000     0.168000000000     0.620400000000     0          
H30      H      0.103500000000     0.174500000000     0.584000000000     0          
C31      C      0.219700000000     0.220900000000     0.742700000000     0          
C32      C      0.222800000000     0.220200000000     0.807100000000     0          
H33      H      0.205900000000     0.198800000000     0.829400000000     0          
H34      H      0.566700000000     0.917900000000     0.462100000000     0          
O35      O      0.441900000000     0.392390000000     0.565800000000     0          
O36      O      0.391600000000     0.440230000000     0.618900000000     0          
C37      C      0.404200000000     0.403800000000     0.604900000000     0          
C38      C      0.371100000000     0.372700000000     0.641700000000     0          
C39      C      0.338400000000     0.381800000000     0.693400000000     0          
H40      H      0.337300000000     0.408500000000     0.707800000000     0          
C41      C      0.306900000000     0.353600000000     0.725300000000     0          
H42      H      0.282200000000     0.360800000000     0.758900000000     0          
C43      C      0.312800000000     0.311900000000     0.705600000000     0          
C44      C      0.346400000000     0.302200000000     0.653300000000     0          
H45      H      0.349900000000     0.275400000000     0.640200000000     0          
C46      C      0.374700000000     0.332000000000     0.620400000000     0          
H47      H      0.396500000000     0.325500000000     0.584000000000     0          
C48      C      0.280300000000     0.279100000000     0.742700000000     0          
C49      C      0.277200000000     0.279800000000     0.807100000000     0          
H50      H      0.294100000000     0.301200000000     0.829400000000     0          
H51      H      0.933300000000     0.582100000000     0.462100000000     0          
O52      O      0.941900000000     0.892390000000     0.565800000000     0          
O53      O      0.891600000000     0.940230000000     0.618900000000     0          
C54      C      0.904200000000     0.903800000000     0.604900000000     0          
C55      C      0.871100000000     0.872700000000     0.641700000000     0          
C56      C      0.838400000000     0.881800000000     0.693400000000     0          
H57      H      0.837300000000     0.908500000000     0.707800000000     0          
C58      C      0.806900000000     0.853600000000     0.725300000000     0          
H59      H      0.782200000000     0.860800000000     0.758900000000     0          
C60      C      0.812800000000     0.811900000000     0.705600000000     0          
C61      C      0.846400000000     0.802200000000     0.653300000000     0          
H62      H      0.849900000000     0.775400000000     0.640200000000     0          
C63      C      0.874700000000     0.832000000000     0.620400000000     0          
H64      H      0.896500000000     0.825500000000     0.584000000000     0          
C65      C      0.780300000000     0.779100000000     0.742700000000     0          
C66      C      0.777200000000     0.779800000000     0.807100000000     0          
H67      H      0.794100000000     0.801200000000     0.829400000000     0          
H68      H      0.433300000000     0.082100000000     0.462100000000     0          
O69      O      0.441900000000     0.607610000000     0.434200000000     0          
O70      O      0.391600000000     0.559770000000     0.381100000000     0          
C71      C      0.404200000000     0.596200000000     0.395100000000     0          
C72      C      0.371100000000     0.627300000000     0.358300000000     0          
C73      C      0.338400000000     0.618200000000     0.306600000000     0          
H74      H      0.337300000000     0.591500000000     0.292200000000     0          
C75      C      0.306900000000     0.646400000000     0.274700000000     0          
H76      H      0.282200000000     0.639200000000     0.241100000000     0          
C77      C      0.312800000000     0.688100000000     0.294400000000     0          
C78      C      0.346400000000     0.697800000000     0.346700000000     0          
H79      H      0.349900000000     0.724600000000     0.359800000000     0          
C80      C      0.374700000000     0.668000000000     0.379600000000     0          
H81      H      0.396500000000     0.674500000000     0.416000000000     0          
C82      C      0.280300000000     0.720900000000     0.257300000000     0          
C83      C      0.277200000000     0.720200000000     0.192900000000     0          
H84      H      0.294100000000     0.698800000000     0.170600000000     0          
O85      O      0.941900000000     0.107610000000     0.434200000000     0          
O86      O      0.891600000000     0.059770000000     0.381100000000     0          
C87      C      0.904200000000     0.096200000000     0.395100000000     0          
C88      C      0.871100000000     0.127300000000     0.358300000000     0          
C89      C      0.838400000000     0.118200000000     0.306600000000     0          
H90      H      0.837300000000     0.091500000000     0.292200000000     0          
C91      C      0.806900000000     0.146400000000     0.274700000000     0          
H92      H      0.782200000000     0.139200000000     0.241100000000     0          
C93      C      0.812800000000     0.188100000000     0.294400000000     0          
C94      C      0.846400000000     0.197800000000     0.346700000000     0          
H95      H      0.849900000000     0.224600000000     0.359800000000     0          
C96      C      0.874700000000     0.168000000000     0.379600000000     0          
H97      H      0.896500000000     0.174500000000     0.416000000000     0          
C98      C      0.780300000000     0.220900000000     0.257300000000     0          
C99      C      0.777200000000     0.220200000000     0.192900000000     0          
H100     H      0.794100000000     0.198800000000     0.170600000000     0          
O101     O      0.558100000000     0.392390000000     0.434200000000     0          
O102     O      0.608400000000     0.440230000000     0.381100000000     0          
C103     C      0.595800000000     0.403800000000     0.395100000000     0          
C104     C      0.628900000000     0.372700000000     0.358300000000     0          
C105     C      0.661600000000     0.381800000000     0.306600000000     0          
H106     H      0.662700000000     0.408500000000     0.292200000000     0          
C107     C      0.693100000000     0.353600000000     0.274700000000     0          
H108     H      0.717800000000     0.360800000000     0.241100000000     0          
C109     C      0.687200000000     0.311900000000     0.294400000000     0          
C110     C      0.653600000000     0.302200000000     0.346700000000     0          
H111     H      0.650100000000     0.275400000000     0.359800000000     0          
C112     C      0.625300000000     0.332000000000     0.379600000000     0          
H113     H      0.603500000000     0.325500000000     0.416000000000     0          
C114     C      0.719700000000     0.279100000000     0.257300000000     0          
C115     C      0.722800000000     0.279800000000     0.192900000000     0          
H116     H      0.705900000000     0.301200000000     0.170600000000     0          
O117     O      0.058100000000     0.892390000000     0.434200000000     0          
O118     O      0.108400000000     0.940230000000     0.381100000000     0          
C119     C      0.095800000000     0.903800000000     0.395100000000     0          
C120     C      0.128900000000     0.872700000000     0.358300000000     0          
C121     C      0.161600000000     0.881800000000     0.306600000000     0          
H122     H      0.162700000000     0.908500000000     0.292200000000     0          
C123     C      0.193100000000     0.853600000000     0.274700000000     0          
H124     H      0.217800000000     0.860800000000     0.241100000000     0          
C125     C      0.187200000000     0.811900000000     0.294400000000     0          
C126     C      0.153600000000     0.802200000000     0.346700000000     0          
H127     H      0.150100000000     0.775400000000     0.359800000000     0          
C128     C      0.125300000000     0.832000000000     0.379600000000     0          
H129     H      0.103500000000     0.825500000000     0.416000000000     0          
C130     C      0.219700000000     0.779100000000     0.257300000000     0          
C131     C      0.222800000000     0.779800000000     0.192900000000     0          
H132     H      0.205900000000     0.801200000000     0.170600000000     0          
O133     O      0.441900000000     0.392390000000     0.434200000000     0          
O134     O      0.391600000000     0.440230000000     0.381100000000     0          
C135     C      0.404200000000     0.403800000000     0.395100000000     0          
C136     C      0.371100000000     0.372700000000     0.358300000000     0          
C137     C      0.338400000000     0.381800000000     0.306600000000     0          
H138     H      0.337300000000     0.408500000000     0.292200000000     0          
C139     C      0.306900000000     0.353600000000     0.274700000000     0          
H140     H      0.282200000000     0.360800000000     0.241100000000     0          
C141     C      0.312800000000     0.311900000000     0.294400000000     0          
C142     C      0.346400000000     0.302200000000     0.346700000000     0          
H143     H      0.349900000000     0.275400000000     0.359800000000     0          
C144     C      0.374700000000     0.332000000000     0.379600000000     0          
H145     H      0.396500000000     0.325500000000     0.416000000000     0          
C146     C      0.280300000000     0.279100000000     0.257300000000     0          
C147     C      0.277200000000     0.279800000000     0.192900000000     0          
H148     H      0.294100000000     0.301200000000     0.170600000000     0          
H149     H      0.933300000000     0.582100000000     0.537900000000     0          
O150     O      0.941900000000     0.892390000000     0.434200000000     0          
O151     O      0.891600000000     0.940230000000     0.381100000000     0          
C152     C      0.904200000000     0.903800000000     0.395100000000     0          
C153     C      0.871100000000     0.872700000000     0.358300000000     0          
C154     C      0.838400000000     0.881800000000     0.306600000000     0          
H155     H      0.837300000000     0.908500000000     0.292200000000     0          
C156     C      0.806900000000     0.853600000000     0.274700000000     0          
H157     H      0.782200000000     0.860800000000     0.241100000000     0          
C158     C      0.812800000000     0.811900000000     0.294400000000     0          
C159     C      0.846400000000     0.802200000000     0.346700000000     0          
H160     H      0.849900000000     0.775400000000     0.359800000000     0          
C161     C      0.874700000000     0.832000000000     0.379600000000     0          
H162     H      0.896500000000     0.825500000000     0.416000000000     0          
C163     C      0.780300000000     0.779100000000     0.257300000000     0          
C164     C      0.777200000000     0.779800000000     0.192900000000     0          
H165     H      0.794100000000     0.801200000000     0.170600000000     0          
H166     H      0.433300000000     0.082100000000     0.537900000000     0          
O167     O      0.558100000000     0.607610000000     0.434200000000     0          
O168     O      0.608400000000     0.559770000000     0.381100000000     0          
C169     C      0.595800000000     0.596200000000     0.395100000000     0          
C170     C      0.628900000000     0.627300000000     0.358300000000     0          
C171     C      0.661600000000     0.618200000000     0.306600000000     0          
H172     H      0.662700000000     0.591500000000     0.292200000000     0          
C173     C      0.693100000000     0.646400000000     0.274700000000     0          
H174     H      0.717800000000     0.639200000000     0.241100000000     0          
C175     C      0.687200000000     0.688100000000     0.294400000000     0          
C176     C      0.653600000000     0.697800000000     0.346700000000     0          
H177     H      0.650100000000     0.724600000000     0.359800000000     0          
C178     C      0.625300000000     0.668000000000     0.379600000000     0          
H179     H      0.603500000000     0.674500000000     0.416000000000     0          
C180     C      0.719700000000     0.720900000000     0.257300000000     0          
C181     C      0.722800000000     0.720200000000     0.192900000000     0          
H182     H      0.705900000000     0.698800000000     0.170600000000     0          
H183     H      0.066700000000     0.417900000000     0.537900000000     0          
O184     O      0.058100000000     0.107610000000     0.434200000000     0          
O185     O      0.108400000000     0.059770000000     0.381100000000     0          
C186     C      0.095800000000     0.096200000000     0.395100000000     0          
C187     C      0.128900000000     0.127300000000     0.358300000000     0          
C188     C      0.161600000000     0.118200000000     0.306600000000     0          
H189     H      0.162700000000     0.091500000000     0.292200000000     0          
C190     C      0.193100000000     0.146400000000     0.274700000000     0          
H191     H      0.217800000000     0.139200000000     0.241100000000     0          
C192     C      0.187200000000     0.188100000000     0.294400000000     0          
C193     C      0.153600000000     0.197800000000     0.346700000000     0          
H194     H      0.150100000000     0.224600000000     0.359800000000     0          
C195     C      0.125300000000     0.168000000000     0.379600000000     0          
H196     H      0.103500000000     0.174500000000     0.416000000000     0          
C197     C      0.219700000000     0.220900000000     0.257300000000     0          
C198     C      0.222800000000     0.220200000000     0.192900000000     0          
H199     H      0.205900000000     0.198800000000     0.170600000000     0          
H200     H      0.566700000000     0.917900000000     0.537900000000     0          
O201     O      0.558100000000     0.392390000000     0.565800000000     0          
O202     O      0.608400000000     0.440230000000     0.618900000000     0          
C203     C      0.595800000000     0.403800000000     0.604900000000     0          
C204     C      0.628900000000     0.372700000000     0.641700000000     0          
C205     C      0.661600000000     0.381800000000     0.693400000000     0          
H206     H      0.662700000000     0.408500000000     0.707800000000     0          
C207     C      0.693100000000     0.353600000000     0.725300000000     0          
H208     H      0.717800000000     0.360800000000     0.758900000000     0          
C209     C      0.687200000000     0.311900000000     0.705600000000     0          
C210     C      0.653600000000     0.302200000000     0.653300000000     0          
H211     H      0.650100000000     0.275400000000     0.640200000000     0          
C212     C      0.625300000000     0.332000000000     0.620400000000     0          
H213     H      0.603500000000     0.325500000000     0.584000000000     0          
C214     C      0.719700000000     0.279100000000     0.742700000000     0          
C215     C      0.722800000000     0.279800000000     0.807100000000     0          
H216     H      0.705900000000     0.301200000000     0.829400000000     0          
O217     O      0.058100000000     0.892390000000     0.565800000000     0          
O218     O      0.108400000000     0.940230000000     0.618900000000     0          
C219     C      0.095800000000     0.903800000000     0.604900000000     0          
C220     C      0.128900000000     0.872700000000     0.641700000000     0          
C221     C      0.161600000000     0.881800000000     0.693400000000     0          
H222     H      0.162700000000     0.908500000000     0.707800000000     0          
C223     C      0.193100000000     0.853600000000     0.725300000000     0          
H224     H      0.217800000000     0.860800000000     0.758900000000     0          
C225     C      0.187200000000     0.811900000000     0.705600000000     0          
C226     C      0.153600000000     0.802200000000     0.653300000000     0          
H227     H      0.150100000000     0.775400000000     0.640200000000     0          
C228     C      0.125300000000     0.832000000000     0.620400000000     0          
H229     H      0.103500000000     0.825500000000     0.584000000000     0          
C230     C      0.219700000000     0.779100000000     0.742700000000     0          
C231     C      0.222800000000     0.779800000000     0.807100000000     0          
H232     H      0.205900000000     0.801200000000     0.829400000000     0          
O233     O      0.441900000000     0.607610000000     0.565800000000     0          
O234     O      0.391600000000     0.559770000000     0.618900000000     0          
C235     C      0.404200000000     0.596200000000     0.604900000000     0          
C236     C      0.371100000000     0.627300000000     0.641700000000     0          
C237     C      0.338400000000     0.618200000000     0.693400000000     0          
H238     H      0.337300000000     0.591500000000     0.707800000000     0          
C239     C      0.306900000000     0.646400000000     0.725300000000     0          
H240     H      0.282200000000     0.639200000000     0.758900000000     0          
C241     C      0.312800000000     0.688100000000     0.705600000000     0          
C242     C      0.346400000000     0.697800000000     0.653300000000     0          
H243     H      0.349900000000     0.724600000000     0.640200000000     0          
C244     C      0.374700000000     0.668000000000     0.620400000000     0          
H245     H      0.396500000000     0.674500000000     0.584000000000     0          
C246     C      0.280300000000     0.720900000000     0.742700000000     0          
C247     C      0.277200000000     0.720200000000     0.807100000000     0          
H248     H      0.294100000000     0.698800000000     0.829400000000     0          
O249     O      0.941900000000     0.107610000000     0.565800000000     0          
O250     O      0.891600000000     0.059770000000     0.618900000000     0          
C251     C      0.904200000000     0.096200000000     0.604900000000     0          
C252     C      0.871100000000     0.127300000000     0.641700000000     0          
C253     C      0.838400000000     0.118200000000     0.693400000000     0          
H254     H      0.837300000000     0.091500000000     0.707800000000     0          
C255     C      0.806900000000     0.146400000000     0.725300000000     0          
H256     H      0.782200000000     0.139200000000     0.758900000000     0          
C257     C      0.812800000000     0.188100000000     0.705600000000     0          
C258     C      0.846400000000     0.197800000000     0.653300000000     0          
H259     H      0.849900000000     0.224600000000     0.640200000000     0          
C260     C      0.874700000000     0.168000000000     0.620400000000     0          
H261     H      0.896500000000     0.174500000000     0.584000000000     0          
C262     C      0.780300000000     0.220900000000     0.742700000000     0          
C263     C      0.777200000000     0.220200000000     0.807100000000     0          
H264     H      0.794100000000     0.198800000000     0.829400000000     0          
Zr265    Zr     0.424160000000     0.500000000000     0.415360000000     0          
O266     O      0.332400000000     0.500000000000     0.443900000000     0          
O267     O      0.435600000000     0.500000000000     0.309100000000     0          
C268     C      0.213500000000     0.500000000000     0.442400000000     0          
H269     H      0.233600000000     0.500000000000     0.403400000000     0          
C270     C      0.154900000000     0.500000000000     0.442700000000     0          
H271     H      0.134700000000     0.500000000000     0.403800000000     0          
Zr272    Zr     0.924160000000     0.000000000000     0.415360000000     0          
O273     O      0.832400000000     0.000000000000     0.443900000000     0          
O274     O      0.935600000000     0.000000000000     0.309100000000     0          
C275     C      0.713500000000     0.000000000000     0.442400000000     0          
H276     H      0.733600000000     0.000000000000     0.403400000000     0          
C277     C      0.654900000000     0.000000000000     0.442700000000     0          
H278     H      0.634700000000     0.000000000000     0.403800000000     0          
Zr279    Zr     0.575840000000     0.500000000000     0.415360000000     0          
O280     O      0.667600000000     0.500000000000     0.443900000000     0          
O281     O      0.564400000000     0.500000000000     0.309100000000     0          
C282     C      0.786500000000     0.500000000000     0.442400000000     0          
H283     H      0.766400000000     0.500000000000     0.403400000000     0          
C284     C      0.845100000000     0.500000000000     0.442700000000     0          
H285     H      0.865300000000     0.500000000000     0.403800000000     0          
Zr286    Zr     0.075840000000     0.000000000000     0.415360000000     0          
O287     O      0.167600000000     0.000000000000     0.443900000000     0          
O288     O      0.064400000000     0.000000000000     0.309100000000     0          
C289     C      0.286500000000     0.000000000000     0.442400000000     0          
H290     H      0.266400000000     0.000000000000     0.403400000000     0          
C291     C      0.345100000000     0.000000000000     0.442700000000     0          
H292     H      0.365300000000     0.000000000000     0.403800000000     0          
Zr293    Zr     0.575840000000     0.500000000000     0.584640000000     0          
O294     O      0.667600000000     0.500000000000     0.556100000000     0          
O295     O      0.564400000000     0.500000000000     0.690900000000     0          
C296     C      0.786500000000     0.500000000000     0.557600000000     0          
H297     H      0.766400000000     0.500000000000     0.596600000000     0          
C298     C      0.845100000000     0.500000000000     0.557300000000     0          
H299     H      0.865300000000     0.500000000000     0.596200000000     0          
Zr300    Zr     0.075840000000     0.000000000000     0.584640000000     0          
O301     O      0.167600000000     0.000000000000     0.556100000000     0          
O302     O      0.064400000000     0.000000000000     0.690900000000     0          
C303     C      0.286500000000     0.000000000000     0.557600000000     0          
H304     H      0.266400000000     0.000000000000     0.596600000000     0          
C305     C      0.345100000000     0.000000000000     0.557300000000     0          
H306     H      0.365300000000     0.000000000000     0.596200000000     0          
Zr307    Zr     0.424160000000     0.500000000000     0.584640000000     0          
O308     O      0.332400000000     0.500000000000     0.556100000000     0          
O309     O      0.435600000000     0.500000000000     0.690900000000     0          
C310     C      0.213500000000     0.500000000000     0.557600000000     0          
H311     H      0.233600000000     0.500000000000     0.596600000000     0          
C312     C      0.154900000000     0.500000000000     0.557300000000     0          
H313     H      0.134700000000     0.500000000000     0.596200000000     0          
Zr314    Zr     0.924160000000     0.000000000000     0.584640000000     0          
O315     O      0.832400000000     0.000000000000     0.556100000000     0          
O316     O      0.935600000000     0.000000000000     0.690900000000     0          
C317     C      0.713500000000     0.000000000000     0.557600000000     0          
H318     H      0.733600000000     0.000000000000     0.596600000000     0          
C319     C      0.654900000000     0.000000000000     0.557300000000     0          
H320     H      0.634700000000     0.000000000000     0.596200000000     0          
Zr321    Zr     0.500000000000     0.574400000000     0.500000000000     0          
Zr322    Zr     0.000000000000     0.074400000000     0.500000000000     0          
Zr323    Zr     0.500000000000     0.425600000000     0.500000000000     0          
Zr324    Zr     0.000000000000     0.925600000000     0.500000000000     0          
O325     O      0.500000000000     0.536300000000     0.414600000000     0          
O326     O      0.000000000000     0.036300000000     0.414600000000     0          
O327     O      0.500000000000     0.463700000000     0.414600000000     0          
O328     O      0.000000000000     0.963700000000     0.414600000000     0          
O329     O      0.500000000000     0.536300000000     0.585400000000     0          
O330     O      0.000000000000     0.036300000000     0.585400000000     0          
O331     O      0.500000000000     0.463700000000     0.585400000000     0          
O332     O      0.000000000000     0.963700000000     0.585400000000     0          
O333     O      0.426100000000     0.537000000000     0.500000000000     0          
C334     C      0.026500000000     0.467000000000     0.500000000000     0          
C335     C      0.044000000000     0.423400000000     0.500000000000     0          
H336     H      0.010300000000     0.406400000000     0.500000000000     0          
O337     O      0.926100000000     0.037000000000     0.500000000000     0          
C338     C      0.526500000000     0.967000000000     0.500000000000     0          
C339     C      0.544000000000     0.923400000000     0.500000000000     0          
H340     H      0.510300000000     0.906400000000     0.500000000000     0          
O341     O      0.573900000000     0.463000000000     0.500000000000     0          
C342     C      0.973500000000     0.533000000000     0.500000000000     0          
C343     C      0.956000000000     0.576600000000     0.500000000000     0          
H344     H      0.989700000000     0.593600000000     0.500000000000     0          
O345     O      0.073900000000     0.963000000000     0.500000000000     0          
C346     C      0.473500000000     0.033000000000     0.500000000000     0          
C347     C      0.456000000000     0.076600000000     0.500000000000     0          
H348     H      0.489700000000     0.093600000000     0.500000000000     0          
O349     O      0.573900000000     0.537000000000     0.500000000000     0          
C350     C      0.973500000000     0.467000000000     0.500000000000     0          
O351     O      0.073900000000     0.037000000000     0.500000000000     0          
C352     C      0.473500000000     0.967000000000     0.500000000000     0          
O353     O      0.426100000000     0.463000000000     0.500000000000     0          
C354     C      0.026500000000     0.533000000000     0.500000000000     0          
O355     O      0.926100000000     0.963000000000     0.500000000000     0          
C356     C      0.526500000000     0.033000000000     0.500000000000     0          
C357     C      0.750000000000     0.750000000000     0.710000000000     0          
H358     H      0.750000000000     0.750000000000     0.664900000000     0          
C359     C      0.750000000000     0.750000000000     0.841500000000     0          
C360     C      0.750000000000     0.750000000000     0.909700000000     0          
C361     C      0.750000000000     0.750000000000     0.967000000000     0          
C362     C      0.250000000000     0.250000000000     0.710000000000     0          
H363     H      0.250000000000     0.250000000000     0.664900000000     0          
C364     C      0.250000000000     0.250000000000     0.841500000000     0          
C365     C      0.250000000000     0.250000000000     0.909700000000     0          
C366     C      0.250000000000     0.250000000000     0.967000000000     0          
C367     C      0.250000000000     0.750000000000     0.290000000000     0          
H368     H      0.250000000000     0.750000000000     0.335100000000     0          
C369     C      0.250000000000     0.750000000000     0.158500000000     0          
C370     C      0.250000000000     0.750000000000     0.090300000000     0          
C371     C      0.250000000000     0.750000000000     0.033000000000     0          
C372     C      0.750000000000     0.250000000000     0.290000000000     0          
H373     H      0.750000000000     0.250000000000     0.335100000000     0          
C374     C      0.750000000000     0.250000000000     0.158500000000     0          
C375     C      0.750000000000     0.250000000000     0.090300000000     0          
C376     C      0.750000000000     0.250000000000     0.033000000000     0          
C377     C      0.250000000000     0.250000000000     0.290000000000     0          
H378     H      0.250000000000     0.250000000000     0.335100000000     0          
C379     C      0.250000000000     0.250000000000     0.158500000000     0          
C380     C      0.250000000000     0.250000000000     0.090300000000     0          
C381     C      0.250000000000     0.250000000000     0.033000000000     0          
C382     C      0.750000000000     0.750000000000     0.290000000000     0          
H383     H      0.750000000000     0.750000000000     0.335100000000     0          
C384     C      0.750000000000     0.750000000000     0.158500000000     0          
C385     C      0.750000000000     0.750000000000     0.090300000000     0          
C386     C      0.750000000000     0.750000000000     0.033000000000     0          
C387     C      0.750000000000     0.250000000000     0.710000000000     0          
H388     H      0.750000000000     0.250000000000     0.664900000000     0          
C389     C      0.750000000000     0.250000000000     0.841500000000     0          
C390     C      0.750000000000     0.250000000000     0.909700000000     0          
C391     C      0.750000000000     0.250000000000     0.967000000000     0          
C392     C      0.250000000000     0.750000000000     0.710000000000     0          
H393     H      0.250000000000     0.750000000000     0.664900000000     0          
C394     C      0.250000000000     0.750000000000     0.841500000000     0          
C395     C      0.250000000000     0.750000000000     0.909700000000     0          
C396     C      0.250000000000     0.750000000000     0.967000000000     0          
C397     C      0.308900000000     0.500000000000     0.500000000000     0          
C398     C      0.242700000000     0.500000000000     0.500000000000     0          
C399     C      0.125500000000     0.500000000000     0.500000000000     0          
C400     C      0.059800000000     0.500000000000     0.500000000000     0          
C401     C      0.808900000000     0.000000000000     0.500000000000     0          
C402     C      0.742700000000     0.000000000000     0.500000000000     0          
C403     C      0.625500000000     0.000000000000     0.500000000000     0          
C404     C      0.559800000000     0.000000000000     0.500000000000     0          
C405     C      0.691100000000     0.500000000000     0.500000000000     0          
C406     C      0.757300000000     0.500000000000     0.500000000000     0          
C407     C      0.874500000000     0.500000000000     0.500000000000     0          
C408     C      0.940200000000     0.500000000000     0.500000000000     0          
C409     C      0.191100000000     0.000000000000     0.500000000000     0          
C410     C      0.257300000000     0.000000000000     0.500000000000     0          
C411     C      0.374500000000     0.000000000000     0.500000000000     0          
C412     C      0.440200000000     0.000000000000     0.500000000000     0          
H413     H      0.952890000000     0.435670000000     0.500000000000     0          
H414     H      0.047110000000     0.564330000000     0.500000000000     0          
H415     H      0.452890000000     0.935670000000     0.500000000000     0          
H416     H      0.547110000000     0.064330000000     0.500000000000     0          


