data_HICPOB

_audit_creation_method RASPA-1.0
_audit_creation_date 2020-11-2
_audit_author_name 'Rocio Bueno-Perez'

_cell_length_a    23.361
_cell_length_b    33.409
_cell_length_c    20.691
_cell_angle_alpha 90
_cell_angle_beta  90
_cell_angle_gamma 90
_cell_volume      16148.7

_symmetry_cell_setting          triclinic
_symmetry_space_group_name_Hall 'P 1'
_symmetry_space_group_name_H-M  'P 1'
_symmetry_Int_Tables_number     1

_symmetry_equiv_pos_as_xyz 'x,y,z'

loop_
_atom_site_label
_atom_site_type_symbol
_atom_site_fract_x
_atom_site_fract_y
_atom_site_fract_z
_atom_site_charge
O1       O      0.106300000000     0.060930000000     0.380700000000     0          
C2       C      0.128700000000     0.128200000000     0.360900000000     0          
O3       O      0.057800000000     0.108060000000     0.435900000000     0          
C4       C      0.127700000000     0.167400000000     0.381500000000     0          
H5       H      0.106800000000     0.173900000000     0.418200000000     0          
C6       C      0.156600000000     0.197400000000     0.349500000000     0          
H7       H      0.154600000000     0.223600000000     0.364100000000     0          
C8       C      0.159900000000     0.119600000000     0.307600000000     0          
H9       H      0.160300000000     0.093400000000     0.292600000000     0          
C10      C      0.188600000000     0.188200000000     0.295600000000     0          
C11      C      0.094800000000     0.097200000000     0.396000000000     0          
C12      C      0.191800000000     0.148400000000     0.273900000000     0          
H13      H      0.214300000000     0.141500000000     0.238500000000     0          
C14      C      0.220700000000     0.219800000000     0.259000000000     0          
C15      C      0.220400000000     0.220300000000     0.192500000000     0          
H16      H      0.200400000000     0.200800000000     0.169700000000     0          
C17      C      0.470000000000     0.024000000000     0.459000000000     0          
O18      O      0.606300000000     0.560930000000     0.380700000000     0          
C19      C      0.628700000000     0.628200000000     0.360900000000     0          
O20      O      0.557800000000     0.608060000000     0.435900000000     0          
C21      C      0.627700000000     0.667400000000     0.381500000000     0          
H22      H      0.606800000000     0.673900000000     0.418200000000     0          
C23      C      0.656600000000     0.697400000000     0.349500000000     0          
H24      H      0.654600000000     0.723600000000     0.364100000000     0          
C25      C      0.659900000000     0.619600000000     0.307600000000     0          
H26      H      0.660300000000     0.593400000000     0.292600000000     0          
C27      C      0.688600000000     0.688200000000     0.295600000000     0          
C28      C      0.594800000000     0.597200000000     0.396000000000     0          
C29      C      0.691800000000     0.648400000000     0.273900000000     0          
H30      H      0.714300000000     0.641500000000     0.238500000000     0          
C31      C      0.720700000000     0.719800000000     0.259000000000     0          
C32      C      0.720400000000     0.720300000000     0.192500000000     0          
H33      H      0.700400000000     0.700800000000     0.169700000000     0          
O34      O      0.893700000000     0.939070000000     0.380700000000     0          
C35      C      0.871300000000     0.871800000000     0.360900000000     0          
O36      O      0.942200000000     0.891940000000     0.435900000000     0          
C37      C      0.872300000000     0.832600000000     0.381500000000     0          
H38      H      0.893200000000     0.826100000000     0.418200000000     0          
C39      C      0.843400000000     0.802600000000     0.349500000000     0          
H40      H      0.845400000000     0.776400000000     0.364100000000     0          
C41      C      0.840100000000     0.880400000000     0.307600000000     0          
H42      H      0.839700000000     0.906600000000     0.292600000000     0          
C43      C      0.811400000000     0.811800000000     0.295600000000     0          
C44      C      0.905200000000     0.902800000000     0.396000000000     0          
C45      C      0.808200000000     0.851600000000     0.273900000000     0          
H46      H      0.785700000000     0.858500000000     0.238500000000     0          
C47      C      0.779300000000     0.780200000000     0.259000000000     0          
C48      C      0.779600000000     0.779700000000     0.192500000000     0          
H49      H      0.799600000000     0.799200000000     0.169700000000     0          
O50      O      0.393700000000     0.439070000000     0.380700000000     0          
C51      C      0.371300000000     0.371800000000     0.360900000000     0          
O52      O      0.442200000000     0.391940000000     0.435900000000     0          
C53      C      0.372300000000     0.332600000000     0.381500000000     0          
H54      H      0.393200000000     0.326100000000     0.418200000000     0          
C55      C      0.343400000000     0.302600000000     0.349500000000     0          
H56      H      0.345400000000     0.276400000000     0.364100000000     0          
C57      C      0.340100000000     0.380400000000     0.307600000000     0          
H58      H      0.339700000000     0.406600000000     0.292600000000     0          
C59      C      0.311400000000     0.311800000000     0.295600000000     0          
C60      C      0.405200000000     0.402800000000     0.396000000000     0          
C61      C      0.308200000000     0.351600000000     0.273900000000     0          
H62      H      0.285700000000     0.358500000000     0.238500000000     0          
C63      C      0.279300000000     0.280200000000     0.259000000000     0          
C64      C      0.279600000000     0.279700000000     0.192500000000     0          
H65      H      0.299600000000     0.299200000000     0.169700000000     0          
C66      C      0.030000000000     0.476000000000     0.459000000000     0          
O67      O      0.893700000000     0.060930000000     0.619300000000     0          
C68      C      0.871300000000     0.128200000000     0.639100000000     0          
O69      O      0.942200000000     0.108060000000     0.564100000000     0          
C70      C      0.872300000000     0.167400000000     0.618500000000     0          
H71      H      0.893200000000     0.173900000000     0.581800000000     0          
C72      C      0.843400000000     0.197400000000     0.650500000000     0          
H73      H      0.845400000000     0.223600000000     0.635900000000     0          
C74      C      0.840100000000     0.119600000000     0.692400000000     0          
H75      H      0.839700000000     0.093400000000     0.707400000000     0          
C76      C      0.811400000000     0.188200000000     0.704400000000     0          
C77      C      0.905200000000     0.097200000000     0.604000000000     0          
C78      C      0.808200000000     0.148400000000     0.726100000000     0          
H79      H      0.785700000000     0.141500000000     0.761500000000     0          
C80      C      0.779300000000     0.219800000000     0.741000000000     0          
C81      C      0.779600000000     0.220300000000     0.807500000000     0          
H82      H      0.799600000000     0.200800000000     0.830300000000     0          
O83      O      0.393700000000     0.560930000000     0.619300000000     0          
C84      C      0.371300000000     0.628200000000     0.639100000000     0          
O85      O      0.442200000000     0.608060000000     0.564100000000     0          
C86      C      0.372300000000     0.667400000000     0.618500000000     0          
H87      H      0.393200000000     0.673900000000     0.581800000000     0          
C88      C      0.343400000000     0.697400000000     0.650500000000     0          
H89      H      0.345400000000     0.723600000000     0.635900000000     0          
C90      C      0.340100000000     0.619600000000     0.692400000000     0          
H91      H      0.339700000000     0.593400000000     0.707400000000     0          
C92      C      0.311400000000     0.688200000000     0.704400000000     0          
C93      C      0.405200000000     0.597200000000     0.604000000000     0          
C94      C      0.308200000000     0.648400000000     0.726100000000     0          
H95      H      0.285700000000     0.641500000000     0.761500000000     0          
C96      C      0.279300000000     0.719800000000     0.741000000000     0          
C97      C      0.279600000000     0.720300000000     0.807500000000     0          
H98      H      0.299600000000     0.700800000000     0.830300000000     0          
C99      C      0.030000000000     0.524000000000     0.541000000000     0          
O100     O      0.039000000000     0.545850000000     0.573940000000     0          
O101     O      0.106300000000     0.939070000000     0.619300000000     0          
C102     C      0.128700000000     0.871800000000     0.639100000000     0          
O103     O      0.057800000000     0.891940000000     0.564100000000     0          
C104     C      0.127700000000     0.832600000000     0.618500000000     0          
H105     H      0.106800000000     0.826100000000     0.581800000000     0          
C106     C      0.156600000000     0.802600000000     0.650500000000     0          
H107     H      0.154600000000     0.776400000000     0.635900000000     0          
C108     C      0.159900000000     0.880400000000     0.692400000000     0          
H109     H      0.160300000000     0.906600000000     0.707400000000     0          
C110     C      0.188600000000     0.811800000000     0.704400000000     0          
C111     C      0.094800000000     0.902800000000     0.604000000000     0          
C112     C      0.191800000000     0.851600000000     0.726100000000     0          
H113     H      0.214300000000     0.858500000000     0.761500000000     0          
C114     C      0.220700000000     0.780200000000     0.741000000000     0          
C115     C      0.220400000000     0.779700000000     0.807500000000     0          
H116     H      0.200400000000     0.799200000000     0.830300000000     0          
C117     C      0.470000000000     0.976000000000     0.541000000000     0          
O118     O      0.460360000000     0.954640000000     0.576630000000     0          
O119     O      0.606300000000     0.439070000000     0.619300000000     0          
C120     C      0.628700000000     0.371800000000     0.639100000000     0          
O121     O      0.557800000000     0.391940000000     0.564100000000     0          
C122     C      0.627700000000     0.332600000000     0.618500000000     0          
H123     H      0.606800000000     0.326100000000     0.581800000000     0          
C124     C      0.656600000000     0.302600000000     0.650500000000     0          
H125     H      0.654600000000     0.276400000000     0.635900000000     0          
C126     C      0.659900000000     0.380400000000     0.692400000000     0          
H127     H      0.660300000000     0.406600000000     0.707400000000     0          
C128     C      0.688600000000     0.311800000000     0.704400000000     0          
C129     C      0.594800000000     0.402800000000     0.604000000000     0          
C130     C      0.691800000000     0.351600000000     0.726100000000     0          
H131     H      0.714300000000     0.358500000000     0.761500000000     0          
C132     C      0.720700000000     0.280200000000     0.741000000000     0          
C133     C      0.720400000000     0.279700000000     0.807500000000     0          
H134     H      0.700400000000     0.299200000000     0.830300000000     0          
O135     O      0.893700000000     0.939070000000     0.619300000000     0          
C136     C      0.871300000000     0.871800000000     0.639100000000     0          
O137     O      0.942200000000     0.891940000000     0.564100000000     0          
C138     C      0.872300000000     0.832600000000     0.618500000000     0          
H139     H      0.893200000000     0.826100000000     0.581800000000     0          
C140     C      0.843400000000     0.802600000000     0.650500000000     0          
H141     H      0.845400000000     0.776400000000     0.635900000000     0          
C142     C      0.840100000000     0.880400000000     0.692400000000     0          
H143     H      0.839700000000     0.906600000000     0.707400000000     0          
C144     C      0.811400000000     0.811800000000     0.704400000000     0          
C145     C      0.905200000000     0.902800000000     0.604000000000     0          
C146     C      0.808200000000     0.851600000000     0.726100000000     0          
H147     H      0.785700000000     0.858500000000     0.761500000000     0          
C148     C      0.779300000000     0.780200000000     0.741000000000     0          
C149     C      0.779600000000     0.779700000000     0.807500000000     0          
H150     H      0.799600000000     0.799200000000     0.830300000000     0          
C151     C      0.530000000000     0.976000000000     0.541000000000     0          
O152     O      0.538360000000     0.954640000000     0.576630000000     0          
O153     O      0.393700000000     0.439070000000     0.619300000000     0          
C154     C      0.371300000000     0.371800000000     0.639100000000     0          
O155     O      0.442200000000     0.391940000000     0.564100000000     0          
C156     C      0.372300000000     0.332600000000     0.618500000000     0          
H157     H      0.393200000000     0.326100000000     0.581800000000     0          
C158     C      0.343400000000     0.302600000000     0.650500000000     0          
H159     H      0.345400000000     0.276400000000     0.635900000000     0          
C160     C      0.340100000000     0.380400000000     0.692400000000     0          
H161     H      0.339700000000     0.406600000000     0.707400000000     0          
C162     C      0.311400000000     0.311800000000     0.704400000000     0          
C163     C      0.405200000000     0.402800000000     0.604000000000     0          
C164     C      0.308200000000     0.351600000000     0.726100000000     0          
H165     H      0.285700000000     0.358500000000     0.761500000000     0          
C166     C      0.279300000000     0.280200000000     0.741000000000     0          
C167     C      0.279600000000     0.279700000000     0.807500000000     0          
H168     H      0.299600000000     0.299200000000     0.830300000000     0          
O169     O      0.106300000000     0.060930000000     0.619300000000     0          
C170     C      0.128700000000     0.128200000000     0.639100000000     0          
O171     O      0.057800000000     0.108060000000     0.564100000000     0          
C172     C      0.127700000000     0.167400000000     0.618500000000     0          
H173     H      0.106800000000     0.173900000000     0.581800000000     0          
C174     C      0.156600000000     0.197400000000     0.650500000000     0          
H175     H      0.154600000000     0.223600000000     0.635900000000     0          
C176     C      0.159900000000     0.119600000000     0.692400000000     0          
H177     H      0.160300000000     0.093400000000     0.707400000000     0          
C178     C      0.188600000000     0.188200000000     0.704400000000     0          
C179     C      0.094800000000     0.097200000000     0.604000000000     0          
C180     C      0.191800000000     0.148400000000     0.726100000000     0          
H181     H      0.214300000000     0.141500000000     0.761500000000     0          
C182     C      0.220700000000     0.219800000000     0.741000000000     0          
C183     C      0.220400000000     0.220300000000     0.807500000000     0          
H184     H      0.200400000000     0.200800000000     0.830300000000     0          
O185     O      0.606300000000     0.560930000000     0.619300000000     0          
C186     C      0.628700000000     0.628200000000     0.639100000000     0          
O187     O      0.557800000000     0.608060000000     0.564100000000     0          
C188     C      0.627700000000     0.667400000000     0.618500000000     0          
H189     H      0.606800000000     0.673900000000     0.581800000000     0          
C190     C      0.656600000000     0.697400000000     0.650500000000     0          
H191     H      0.654600000000     0.723600000000     0.635900000000     0          
C192     C      0.659900000000     0.619600000000     0.692400000000     0          
H193     H      0.660300000000     0.593400000000     0.707400000000     0          
C194     C      0.688600000000     0.688200000000     0.704400000000     0          
C195     C      0.594800000000     0.597200000000     0.604000000000     0          
C196     C      0.691800000000     0.648400000000     0.726100000000     0          
H197     H      0.714300000000     0.641500000000     0.761500000000     0          
C198     C      0.720700000000     0.719800000000     0.741000000000     0          
C199     C      0.720400000000     0.720300000000     0.807500000000     0          
H200     H      0.700400000000     0.700800000000     0.830300000000     0          
C201     C      0.970000000000     0.524000000000     0.541000000000     0          
O202     O      0.961000000000     0.545850000000     0.573940000000     0          
O203     O      0.106300000000     0.939070000000     0.380700000000     0          
C204     C      0.128700000000     0.871800000000     0.360900000000     0          
O205     O      0.057800000000     0.891940000000     0.435900000000     0          
C206     C      0.127700000000     0.832600000000     0.381500000000     0          
H207     H      0.106800000000     0.826100000000     0.418200000000     0          
C208     C      0.156600000000     0.802600000000     0.349500000000     0          
H209     H      0.154600000000     0.776400000000     0.364100000000     0          
C210     C      0.159900000000     0.880400000000     0.307600000000     0          
H211     H      0.160300000000     0.906600000000     0.292600000000     0          
C212     C      0.188600000000     0.811800000000     0.295600000000     0          
C213     C      0.094800000000     0.902800000000     0.396000000000     0          
C214     C      0.191800000000     0.851600000000     0.273900000000     0          
H215     H      0.214300000000     0.858500000000     0.238500000000     0          
C216     C      0.220700000000     0.780200000000     0.259000000000     0          
C217     C      0.220400000000     0.779700000000     0.192500000000     0          
H218     H      0.200400000000     0.799200000000     0.169700000000     0          
O219     O      0.606300000000     0.439070000000     0.380700000000     0          
C220     C      0.628700000000     0.371800000000     0.360900000000     0          
O221     O      0.557800000000     0.391940000000     0.435900000000     0          
C222     C      0.627700000000     0.332600000000     0.381500000000     0          
H223     H      0.606800000000     0.326100000000     0.418200000000     0          
C224     C      0.656600000000     0.302600000000     0.349500000000     0          
H225     H      0.654600000000     0.276400000000     0.364100000000     0          
C226     C      0.659900000000     0.380400000000     0.307600000000     0          
H227     H      0.660300000000     0.406600000000     0.292600000000     0          
C228     C      0.688600000000     0.311800000000     0.295600000000     0          
C229     C      0.594800000000     0.402800000000     0.396000000000     0          
C230     C      0.691800000000     0.351600000000     0.273900000000     0          
H231     H      0.714300000000     0.358500000000     0.238500000000     0          
C232     C      0.720700000000     0.280200000000     0.259000000000     0          
C233     C      0.720400000000     0.279700000000     0.192500000000     0          
H234     H      0.700400000000     0.299200000000     0.169700000000     0          
C235     C      0.970000000000     0.476000000000     0.459000000000     0          
O236     O      0.893700000000     0.060930000000     0.380700000000     0          
C237     C      0.871300000000     0.128200000000     0.360900000000     0          
O238     O      0.942200000000     0.108060000000     0.435900000000     0          
C239     C      0.872300000000     0.167400000000     0.381500000000     0          
H240     H      0.893200000000     0.173900000000     0.418200000000     0          
C241     C      0.843400000000     0.197400000000     0.349500000000     0          
H242     H      0.845400000000     0.223600000000     0.364100000000     0          
C243     C      0.840100000000     0.119600000000     0.307600000000     0          
H244     H      0.839700000000     0.093400000000     0.292600000000     0          
C245     C      0.811400000000     0.188200000000     0.295600000000     0          
C246     C      0.905200000000     0.097200000000     0.396000000000     0          
C247     C      0.808200000000     0.148400000000     0.273900000000     0          
H248     H      0.785700000000     0.141500000000     0.238500000000     0          
C249     C      0.779300000000     0.219800000000     0.259000000000     0          
C250     C      0.779600000000     0.220300000000     0.192500000000     0          
H251     H      0.799600000000     0.200800000000     0.169700000000     0          
C252     C      0.530000000000     0.024000000000     0.459000000000     0          
O253     O      0.393700000000     0.560930000000     0.380700000000     0          
C254     C      0.371300000000     0.628200000000     0.360900000000     0          
O255     O      0.442200000000     0.608060000000     0.435900000000     0          
C256     C      0.372300000000     0.667400000000     0.381500000000     0          
H257     H      0.393200000000     0.673900000000     0.418200000000     0          
C258     C      0.343400000000     0.697400000000     0.349500000000     0          
H259     H      0.345400000000     0.723600000000     0.364100000000     0          
C260     C      0.340100000000     0.619600000000     0.307600000000     0          
H261     H      0.339700000000     0.593400000000     0.292600000000     0          
C262     C      0.311400000000     0.688200000000     0.295600000000     0          
C263     C      0.405200000000     0.597200000000     0.396000000000     0          
C264     C      0.308200000000     0.648400000000     0.273900000000     0          
H265     H      0.285700000000     0.641500000000     0.238500000000     0          
C266     C      0.279300000000     0.719800000000     0.259000000000     0          
C267     C      0.279600000000     0.720300000000     0.192500000000     0          
H268     H      0.299600000000     0.700800000000     0.169700000000     0          
Zr269    Zr     0.000000000000     0.073910000000     0.500000000000     0          
Zr270    Zr     0.500000000000     0.573910000000     0.500000000000     0          
Zr271    Zr     0.000000000000     0.926090000000     0.500000000000     0          
Zr272    Zr     0.500000000000     0.426090000000     0.500000000000     0          
Zr273    Zr     0.075390000000     0.000000000000     0.414660000000     0          
O274     O      0.168100000000     0.000000000000     0.425900000000     0          
C275     C      0.285600000000     0.000000000000     0.441800000000     0          
H276     H      0.266300000000     0.000000000000     0.402500000000     0          
C277     C      0.344300000000     0.000000000000     0.443400000000     0          
H278     H      0.363900000000     0.000000000000     0.404300000000     0          
Zr279    Zr     0.575390000000     0.500000000000     0.414660000000     0          
O280     O      0.668100000000     0.500000000000     0.425900000000     0          
C281     C      0.785600000000     0.500000000000     0.441800000000     0          
H282     H      0.766300000000     0.500000000000     0.402500000000     0          
C283     C      0.844300000000     0.500000000000     0.443400000000     0          
H284     H      0.863900000000     0.500000000000     0.404300000000     0          
Zr285    Zr     0.924610000000     0.000000000000     0.414660000000     0          
O286     O      0.831900000000     0.000000000000     0.425900000000     0          
C287     C      0.714400000000     0.000000000000     0.441800000000     0          
H288     H      0.733700000000     0.000000000000     0.402500000000     0          
C289     C      0.655700000000     0.000000000000     0.443400000000     0          
H290     H      0.636100000000     0.000000000000     0.404300000000     0          
Zr291    Zr     0.424610000000     0.500000000000     0.414660000000     0          
O292     O      0.331900000000     0.500000000000     0.425900000000     0          
C293     C      0.214400000000     0.500000000000     0.441800000000     0          
H294     H      0.233700000000     0.500000000000     0.402500000000     0          
C295     C      0.155700000000     0.500000000000     0.443400000000     0          
H296     H      0.136100000000     0.500000000000     0.404300000000     0          
Zr297    Zr     0.924610000000     0.000000000000     0.585340000000     0          
O298     O      0.831900000000     0.000000000000     0.574100000000     0          
C299     C      0.714400000000     0.000000000000     0.558200000000     0          
H300     H      0.733700000000     0.000000000000     0.597500000000     0          
C301     C      0.655700000000     0.000000000000     0.556600000000     0          
H302     H      0.636100000000     0.000000000000     0.595700000000     0          
Zr303    Zr     0.424610000000     0.500000000000     0.585340000000     0          
O304     O      0.331900000000     0.500000000000     0.574100000000     0          
C305     C      0.214400000000     0.500000000000     0.558200000000     0          
H306     H      0.233700000000     0.500000000000     0.597500000000     0          
C307     C      0.155700000000     0.500000000000     0.556600000000     0          
H308     H      0.136100000000     0.500000000000     0.595700000000     0          
Zr309    Zr     0.075390000000     0.000000000000     0.585340000000     0          
O310     O      0.168100000000     0.000000000000     0.574100000000     0          
C311     C      0.285600000000     0.000000000000     0.558200000000     0          
H312     H      0.266300000000     0.000000000000     0.597500000000     0          
C313     C      0.344300000000     0.000000000000     0.556600000000     0          
H314     H      0.363900000000     0.000000000000     0.595700000000     0          
Zr315    Zr     0.575390000000     0.500000000000     0.585340000000     0          
O316     O      0.668100000000     0.500000000000     0.574100000000     0          
C317     C      0.785600000000     0.500000000000     0.558200000000     0          
H318     H      0.766300000000     0.500000000000     0.597500000000     0          
C319     C      0.844300000000     0.500000000000     0.556600000000     0          
H320     H      0.863900000000     0.500000000000     0.595700000000     0          
O321     O      0.000000000000     0.036200000000     0.415000000000     0          
O322     O      0.500000000000     0.536200000000     0.415000000000     0          
O323     O      0.000000000000     0.963800000000     0.415000000000     0          
O324     O      0.500000000000     0.463800000000     0.415000000000     0          
O325     O      0.000000000000     0.036200000000     0.585000000000     0          
O326     O      0.500000000000     0.536200000000     0.585000000000     0          
O327     O      0.000000000000     0.963800000000     0.585000000000     0          
O328     O      0.500000000000     0.463800000000     0.585000000000     0          
O329     O      0.074000000000     0.036000000000     0.500000000000     0          
O330     O      0.574000000000     0.536000000000     0.500000000000     0          
O331     O      0.926000000000     0.964000000000     0.500000000000     0          
O332     O      0.426000000000     0.464000000000     0.500000000000     0          
O333     O      0.926000000000     0.036000000000     0.500000000000     0          
O334     O      0.426000000000     0.536000000000     0.500000000000     0          
O335     O      0.074000000000     0.964000000000     0.500000000000     0          
O336     O      0.574000000000     0.464000000000     0.500000000000     0          
C337     C      0.250000000000     0.250000000000     0.291700000000     0          
H338     H      0.250000000000     0.250000000000     0.336700000000     0          
C339     C      0.250000000000     0.250000000000     0.159500000000     0          
C340     C      0.250000000000     0.250000000000     0.087900000000     0          
C341     C      0.250000000000     0.250000000000     0.032400000000     0          
C342     C      0.750000000000     0.750000000000     0.291700000000     0          
H343     H      0.750000000000     0.750000000000     0.336700000000     0          
C344     C      0.750000000000     0.750000000000     0.159500000000     0          
C345     C      0.750000000000     0.750000000000     0.087900000000     0          
C346     C      0.750000000000     0.750000000000     0.032400000000     0          
C347     C      0.750000000000     0.250000000000     0.708300000000     0          
H348     H      0.750000000000     0.250000000000     0.663300000000     0          
C349     C      0.750000000000     0.250000000000     0.840500000000     0          
C350     C      0.750000000000     0.250000000000     0.912100000000     0          
C351     C      0.750000000000     0.250000000000     0.967600000000     0          
C352     C      0.250000000000     0.750000000000     0.708300000000     0          
H353     H      0.250000000000     0.750000000000     0.663300000000     0          
C354     C      0.250000000000     0.750000000000     0.840500000000     0          
C355     C      0.250000000000     0.750000000000     0.912100000000     0          
C356     C      0.250000000000     0.750000000000     0.967600000000     0          
C357     C      0.750000000000     0.750000000000     0.708300000000     0          
H358     H      0.750000000000     0.750000000000     0.663300000000     0          
C359     C      0.750000000000     0.750000000000     0.840500000000     0          
C360     C      0.750000000000     0.750000000000     0.912100000000     0          
C361     C      0.750000000000     0.750000000000     0.967600000000     0          
C362     C      0.250000000000     0.250000000000     0.708300000000     0          
H363     H      0.250000000000     0.250000000000     0.663300000000     0          
C364     C      0.250000000000     0.250000000000     0.840500000000     0          
C365     C      0.250000000000     0.250000000000     0.912100000000     0          
C366     C      0.250000000000     0.250000000000     0.967600000000     0          
C367     C      0.250000000000     0.750000000000     0.291700000000     0          
H368     H      0.250000000000     0.750000000000     0.336700000000     0          
C369     C      0.250000000000     0.750000000000     0.159500000000     0          
C370     C      0.250000000000     0.750000000000     0.087900000000     0          
C371     C      0.250000000000     0.750000000000     0.032400000000     0          
C372     C      0.750000000000     0.250000000000     0.291700000000     0          
H373     H      0.750000000000     0.250000000000     0.336700000000     0          
C374     C      0.750000000000     0.250000000000     0.159500000000     0          
C375     C      0.750000000000     0.250000000000     0.087900000000     0          
C376     C      0.750000000000     0.250000000000     0.032400000000     0          
C377     C      0.254900000000     0.000000000000     0.500000000000     0          
C378     C      0.439000000000     0.000000000000     0.500000000000     0          
C379     C      0.376000000000     0.000000000000     0.500000000000     0          
C380     C      0.192000000000     0.000000000000     0.500000000000     0          
C381     C      0.754900000000     0.500000000000     0.500000000000     0          
C382     C      0.939000000000     0.500000000000     0.500000000000     0          
C383     C      0.876000000000     0.500000000000     0.500000000000     0          
C384     C      0.692000000000     0.500000000000     0.500000000000     0          
C385     C      0.745100000000     0.000000000000     0.500000000000     0          
C386     C      0.561000000000     0.000000000000     0.500000000000     0          
C387     C      0.624000000000     0.000000000000     0.500000000000     0          
C388     C      0.808000000000     0.000000000000     0.500000000000     0          
C389     C      0.245100000000     0.500000000000     0.500000000000     0          
C390     C      0.061000000000     0.500000000000     0.500000000000     0          
C391     C      0.124000000000     0.500000000000     0.500000000000     0          
C392     C      0.308000000000     0.500000000000     0.500000000000     0          
H393     H      0.946950000000     0.455340000000     0.423710000000     0          
H394     H      0.053050000000     0.455340000000     0.423710000000     0          
H395     H      0.950540000000     0.537740000000     0.613120000000     0          
H396     H      0.055910000000     0.561610000000     0.541890000000     0          
H397     H      0.463990000000     0.972300000000     0.622540000000     0          
H398     H      0.534090000000     0.926580000000     0.552860000000     0          
H399     H      0.446950000000     0.044660000000     0.423710000000     0          
H400     H      0.553050000000     0.044660000000     0.423710000000     0          


