data_HICPUH

_audit_creation_method RASPA-1.0
_audit_creation_date 2020-11-2
_audit_author_name 'Rocio Bueno-Perez'

_cell_length_a    23.566
_cell_length_b    33.312
_cell_length_c    20.631
_cell_angle_alpha 90
_cell_angle_beta  90
_cell_angle_gamma 90
_cell_volume      16196

_symmetry_cell_setting          triclinic
_symmetry_space_group_name_Hall 'P 1'
_symmetry_space_group_name_H-M  'P 1'
_symmetry_Int_Tables_number     1

_symmetry_equiv_pos_as_xyz 'x,y,z'

loop_
_atom_site_label
_atom_site_type_symbol
_atom_site_fract_x
_atom_site_fract_y
_atom_site_fract_z
_atom_site_charge
O1       O      0.557400000000     0.107930000000     0.564500000000     0          
C2       C      0.596200000000     0.096470000000     0.604600000000     0          
O3       O      0.607100000000     0.060410000000     0.619200000000     0          
C4       C      0.628600000000     0.128170000000     0.639900000000     0          
C5       C      0.627700000000     0.167900000000     0.618500000000     0          
C6       C      0.658700000000     0.119300000000     0.692100000000     0          
H7       H      0.607900000000     0.174400000000     0.580900000000     0          
C8       C      0.655400000000     0.197400000000     0.652100000000     0          
H9       H      0.658000000000     0.093100000000     0.707500000000     0          
C10      C      0.692200000000     0.148300000000     0.726000000000     0          
H11      H      0.652100000000     0.224000000000     0.639000000000     0          
C12      C      0.688000000000     0.188000000000     0.705200000000     0          
H13      H      0.715800000000     0.141000000000     0.760200000000     0          
C14      C      0.721200000000     0.220000000000     0.741000000000     0          
C15      C      0.720600000000     0.220400000000     0.808700000000     0          
H16      H      0.700600000000     0.201000000000     0.831600000000     0          
O17      O      0.057400000000     0.607930000000     0.564500000000     0          
C18      C      0.096200000000     0.596470000000     0.604600000000     0          
O19      O      0.107100000000     0.560410000000     0.619200000000     0          
C20      C      0.128600000000     0.628170000000     0.639900000000     0          
C21      C      0.127700000000     0.667900000000     0.618500000000     0          
C22      C      0.158700000000     0.619300000000     0.692100000000     0          
H23      H      0.107900000000     0.674400000000     0.580900000000     0          
C24      C      0.155400000000     0.697400000000     0.652100000000     0          
H25      H      0.158000000000     0.593100000000     0.707500000000     0          
C26      C      0.192200000000     0.648300000000     0.726000000000     0          
H27      H      0.152100000000     0.724000000000     0.639000000000     0          
C28      C      0.188000000000     0.688000000000     0.705200000000     0          
H29      H      0.215800000000     0.641000000000     0.760200000000     0          
C30      C      0.221200000000     0.720000000000     0.741000000000     0          
C31      C      0.220600000000     0.720400000000     0.808700000000     0          
H32      H      0.200600000000     0.701000000000     0.831600000000     0          
O33      O      0.442600000000     0.892070000000     0.564500000000     0          
C34      C      0.403800000000     0.903530000000     0.604600000000     0          
O35      O      0.392900000000     0.939590000000     0.619200000000     0          
C36      C      0.371400000000     0.871830000000     0.639900000000     0          
C37      C      0.372300000000     0.832100000000     0.618500000000     0          
C38      C      0.341300000000     0.880700000000     0.692100000000     0          
H39      H      0.392100000000     0.825600000000     0.580900000000     0          
C40      C      0.344600000000     0.802600000000     0.652100000000     0          
H41      H      0.342000000000     0.906900000000     0.707500000000     0          
C42      C      0.307800000000     0.851700000000     0.726000000000     0          
H43      H      0.347900000000     0.776000000000     0.639000000000     0          
C44      C      0.312000000000     0.812000000000     0.705200000000     0          
H45      H      0.284200000000     0.859000000000     0.760200000000     0          
C46      C      0.278800000000     0.780000000000     0.741000000000     0          
C47      C      0.279400000000     0.779600000000     0.808700000000     0          
H48      H      0.299400000000     0.799000000000     0.831600000000     0          
O49      O      0.942600000000     0.392070000000     0.564500000000     0          
C50      C      0.903800000000     0.403530000000     0.604600000000     0          
O51      O      0.892900000000     0.439590000000     0.619200000000     0          
C52      C      0.871400000000     0.371830000000     0.639900000000     0          
C53      C      0.872300000000     0.332100000000     0.618500000000     0          
C54      C      0.841300000000     0.380700000000     0.692100000000     0          
H55      H      0.892100000000     0.325600000000     0.580900000000     0          
C56      C      0.844600000000     0.302600000000     0.652100000000     0          
H57      H      0.842000000000     0.406900000000     0.707500000000     0          
C58      C      0.807800000000     0.351700000000     0.726000000000     0          
H59      H      0.847900000000     0.276000000000     0.639000000000     0          
C60      C      0.812000000000     0.312000000000     0.705200000000     0          
H61      H      0.784200000000     0.359000000000     0.760200000000     0          
C62      C      0.778800000000     0.280000000000     0.741000000000     0          
C63      C      0.779400000000     0.279600000000     0.808700000000     0          
H64      H      0.799400000000     0.299000000000     0.831600000000     0          
O65      O      0.442600000000     0.107930000000     0.435500000000     0          
C66      C      0.403800000000     0.096470000000     0.395400000000     0          
O67      O      0.392900000000     0.060410000000     0.380800000000     0          
C68      C      0.371400000000     0.128170000000     0.360100000000     0          
C69      C      0.372300000000     0.167900000000     0.381500000000     0          
C70      C      0.341300000000     0.119300000000     0.307900000000     0          
H71      H      0.392100000000     0.174400000000     0.419100000000     0          
C72      C      0.344600000000     0.197400000000     0.347900000000     0          
H73      H      0.342000000000     0.093100000000     0.292500000000     0          
C74      C      0.307800000000     0.148300000000     0.274000000000     0          
H75      H      0.347900000000     0.224000000000     0.361000000000     0          
C76      C      0.312000000000     0.188000000000     0.294800000000     0          
H77      H      0.284200000000     0.141000000000     0.239800000000     0          
C78      C      0.278800000000     0.220000000000     0.259000000000     0          
C79      C      0.279400000000     0.220400000000     0.191300000000     0          
H80      H      0.299400000000     0.201000000000     0.168400000000     0          
O81      O      0.942600000000     0.607930000000     0.435500000000     0          
C82      C      0.903800000000     0.596470000000     0.395400000000     0          
O83      O      0.892900000000     0.560410000000     0.380800000000     0          
C84      C      0.871400000000     0.628170000000     0.360100000000     0          
C85      C      0.872300000000     0.667900000000     0.381500000000     0          
C86      C      0.841300000000     0.619300000000     0.307900000000     0          
H87      H      0.892100000000     0.674400000000     0.419100000000     0          
C88      C      0.844600000000     0.697400000000     0.347900000000     0          
H89      H      0.842000000000     0.593100000000     0.292500000000     0          
C90      C      0.807800000000     0.648300000000     0.274000000000     0          
H91      H      0.847900000000     0.724000000000     0.361000000000     0          
C92      C      0.812000000000     0.688000000000     0.294800000000     0          
H93      H      0.784200000000     0.641000000000     0.239800000000     0          
C94      C      0.778800000000     0.720000000000     0.259000000000     0          
C95      C      0.779400000000     0.720400000000     0.191300000000     0          
H96      H      0.799400000000     0.701000000000     0.168400000000     0          
O97      O      0.557400000000     0.892070000000     0.435500000000     0          
C98      C      0.596200000000     0.903530000000     0.395400000000     0          
O99      O      0.607100000000     0.939590000000     0.380800000000     0          
C100     C      0.628600000000     0.871830000000     0.360100000000     0          
C101     C      0.627700000000     0.832100000000     0.381500000000     0          
C102     C      0.658700000000     0.880700000000     0.307900000000     0          
H103     H      0.607900000000     0.825600000000     0.419100000000     0          
C104     C      0.655400000000     0.802600000000     0.347900000000     0          
H105     H      0.658000000000     0.906900000000     0.292500000000     0          
C106     C      0.692200000000     0.851700000000     0.274000000000     0          
H107     H      0.652100000000     0.776000000000     0.361000000000     0          
C108     C      0.688000000000     0.812000000000     0.294800000000     0          
H109     H      0.715800000000     0.859000000000     0.239800000000     0          
C110     C      0.721200000000     0.780000000000     0.259000000000     0          
C111     C      0.720600000000     0.779600000000     0.191300000000     0          
H112     H      0.700600000000     0.799000000000     0.168400000000     0          
O113     O      0.057400000000     0.392070000000     0.435500000000     0          
C114     C      0.096200000000     0.403530000000     0.395400000000     0          
O115     O      0.107100000000     0.439590000000     0.380800000000     0          
C116     C      0.128600000000     0.371830000000     0.360100000000     0          
C117     C      0.127700000000     0.332100000000     0.381500000000     0          
C118     C      0.158700000000     0.380700000000     0.307900000000     0          
H119     H      0.107900000000     0.325600000000     0.419100000000     0          
C120     C      0.155400000000     0.302600000000     0.347900000000     0          
H121     H      0.158000000000     0.406900000000     0.292500000000     0          
C122     C      0.192200000000     0.351700000000     0.274000000000     0          
H123     H      0.152100000000     0.276000000000     0.361000000000     0          
C124     C      0.188000000000     0.312000000000     0.294800000000     0          
H125     H      0.215800000000     0.359000000000     0.239800000000     0          
C126     C      0.221200000000     0.280000000000     0.259000000000     0          
C127     C      0.220600000000     0.279600000000     0.191300000000     0          
H128     H      0.200600000000     0.299000000000     0.168400000000     0          
O129     O      0.442600000000     0.892070000000     0.435500000000     0          
C130     C      0.403800000000     0.903530000000     0.395400000000     0          
O131     O      0.392900000000     0.939590000000     0.380800000000     0          
C132     C      0.371400000000     0.871830000000     0.360100000000     0          
C133     C      0.372300000000     0.832100000000     0.381500000000     0          
C134     C      0.341300000000     0.880700000000     0.307900000000     0          
H135     H      0.392100000000     0.825600000000     0.419100000000     0          
C136     C      0.344600000000     0.802600000000     0.347900000000     0          
H137     H      0.342000000000     0.906900000000     0.292500000000     0          
C138     C      0.307800000000     0.851700000000     0.274000000000     0          
H139     H      0.347900000000     0.776000000000     0.361000000000     0          
C140     C      0.312000000000     0.812000000000     0.294800000000     0          
H141     H      0.284200000000     0.859000000000     0.239800000000     0          
C142     C      0.278800000000     0.780000000000     0.259000000000     0          
C143     C      0.279400000000     0.779600000000     0.191300000000     0          
H144     H      0.299400000000     0.799000000000     0.168400000000     0          
O145     O      0.942600000000     0.392070000000     0.435500000000     0          
C146     C      0.903800000000     0.403530000000     0.395400000000     0          
O147     O      0.892900000000     0.439590000000     0.380800000000     0          
C148     C      0.871400000000     0.371830000000     0.360100000000     0          
C149     C      0.872300000000     0.332100000000     0.381500000000     0          
C150     C      0.841300000000     0.380700000000     0.307900000000     0          
H151     H      0.892100000000     0.325600000000     0.419100000000     0          
C152     C      0.844600000000     0.302600000000     0.347900000000     0          
H153     H      0.842000000000     0.406900000000     0.292500000000     0          
C154     C      0.807800000000     0.351700000000     0.274000000000     0          
H155     H      0.847900000000     0.276000000000     0.361000000000     0          
C156     C      0.812000000000     0.312000000000     0.294800000000     0          
H157     H      0.784200000000     0.359000000000     0.239800000000     0          
C158     C      0.778800000000     0.280000000000     0.259000000000     0          
C159     C      0.779400000000     0.279600000000     0.191300000000     0          
H160     H      0.799400000000     0.299000000000     0.168400000000     0          
O161     O      0.557400000000     0.107930000000     0.435500000000     0          
C162     C      0.596200000000     0.096470000000     0.395400000000     0          
O163     O      0.607100000000     0.060410000000     0.380800000000     0          
C164     C      0.628600000000     0.128170000000     0.360100000000     0          
C165     C      0.627700000000     0.167900000000     0.381500000000     0          
C166     C      0.658700000000     0.119300000000     0.307900000000     0          
H167     H      0.607900000000     0.174400000000     0.419100000000     0          
C168     C      0.655400000000     0.197400000000     0.347900000000     0          
H169     H      0.658000000000     0.093100000000     0.292500000000     0          
C170     C      0.692200000000     0.148300000000     0.274000000000     0          
H171     H      0.652100000000     0.224000000000     0.361000000000     0          
C172     C      0.688000000000     0.188000000000     0.294800000000     0          
H173     H      0.715800000000     0.141000000000     0.239800000000     0          
C174     C      0.721200000000     0.220000000000     0.259000000000     0          
C175     C      0.720600000000     0.220400000000     0.191300000000     0          
H176     H      0.700600000000     0.201000000000     0.168400000000     0          
O177     O      0.057400000000     0.607930000000     0.435500000000     0          
C178     C      0.096200000000     0.596470000000     0.395400000000     0          
O179     O      0.107100000000     0.560410000000     0.380800000000     0          
C180     C      0.128600000000     0.628170000000     0.360100000000     0          
C181     C      0.127700000000     0.667900000000     0.381500000000     0          
C182     C      0.158700000000     0.619300000000     0.307900000000     0          
H183     H      0.107900000000     0.674400000000     0.419100000000     0          
C184     C      0.155400000000     0.697400000000     0.347900000000     0          
H185     H      0.158000000000     0.593100000000     0.292500000000     0          
C186     C      0.192200000000     0.648300000000     0.274000000000     0          
H187     H      0.152100000000     0.724000000000     0.361000000000     0          
C188     C      0.188000000000     0.688000000000     0.294800000000     0          
H189     H      0.215800000000     0.641000000000     0.239800000000     0          
C190     C      0.221200000000     0.720000000000     0.259000000000     0          
C191     C      0.220600000000     0.720400000000     0.191300000000     0          
H192     H      0.200600000000     0.701000000000     0.168400000000     0          
O193     O      0.557400000000     0.892070000000     0.564500000000     0          
C194     C      0.596200000000     0.903530000000     0.604600000000     0          
O195     O      0.607100000000     0.939590000000     0.619200000000     0          
C196     C      0.628600000000     0.871830000000     0.639900000000     0          
C197     C      0.627700000000     0.832100000000     0.618500000000     0          
C198     C      0.658700000000     0.880700000000     0.692100000000     0          
H199     H      0.607900000000     0.825600000000     0.580900000000     0          
C200     C      0.655400000000     0.802600000000     0.652100000000     0          
H201     H      0.658000000000     0.906900000000     0.707500000000     0          
C202     C      0.692200000000     0.851700000000     0.726000000000     0          
H203     H      0.652100000000     0.776000000000     0.639000000000     0          
C204     C      0.688000000000     0.812000000000     0.705200000000     0          
H205     H      0.715800000000     0.859000000000     0.760200000000     0          
C206     C      0.721200000000     0.780000000000     0.741000000000     0          
C207     C      0.720600000000     0.779600000000     0.808700000000     0          
H208     H      0.700600000000     0.799000000000     0.831600000000     0          
O209     O      0.057400000000     0.392070000000     0.564500000000     0          
C210     C      0.096200000000     0.403530000000     0.604600000000     0          
O211     O      0.107100000000     0.439590000000     0.619200000000     0          
C212     C      0.128600000000     0.371830000000     0.639900000000     0          
C213     C      0.127700000000     0.332100000000     0.618500000000     0          
C214     C      0.158700000000     0.380700000000     0.692100000000     0          
H215     H      0.107900000000     0.325600000000     0.580900000000     0          
C216     C      0.155400000000     0.302600000000     0.652100000000     0          
H217     H      0.158000000000     0.406900000000     0.707500000000     0          
C218     C      0.192200000000     0.351700000000     0.726000000000     0          
H219     H      0.152100000000     0.276000000000     0.639000000000     0          
C220     C      0.188000000000     0.312000000000     0.705200000000     0          
H221     H      0.215800000000     0.359000000000     0.760200000000     0          
C222     C      0.221200000000     0.280000000000     0.741000000000     0          
C223     C      0.220600000000     0.279600000000     0.808700000000     0          
H224     H      0.200600000000     0.299000000000     0.831600000000     0          
O225     O      0.442600000000     0.107930000000     0.564500000000     0          
C226     C      0.403800000000     0.096470000000     0.604600000000     0          
O227     O      0.392900000000     0.060410000000     0.619200000000     0          
C228     C      0.371400000000     0.128170000000     0.639900000000     0          
C229     C      0.372300000000     0.167900000000     0.618500000000     0          
C230     C      0.341300000000     0.119300000000     0.692100000000     0          
H231     H      0.392100000000     0.174400000000     0.580900000000     0          
C232     C      0.344600000000     0.197400000000     0.652100000000     0          
H233     H      0.342000000000     0.093100000000     0.707500000000     0          
C234     C      0.307800000000     0.148300000000     0.726000000000     0          
H235     H      0.347900000000     0.224000000000     0.639000000000     0          
C236     C      0.312000000000     0.188000000000     0.705200000000     0          
H237     H      0.284200000000     0.141000000000     0.760200000000     0          
C238     C      0.278800000000     0.220000000000     0.741000000000     0          
C239     C      0.279400000000     0.220400000000     0.808700000000     0          
H240     H      0.299400000000     0.201000000000     0.831600000000     0          
O241     O      0.942600000000     0.607930000000     0.564500000000     0          
C242     C      0.903800000000     0.596470000000     0.604600000000     0          
O243     O      0.892900000000     0.560410000000     0.619200000000     0          
C244     C      0.871400000000     0.628170000000     0.639900000000     0          
C245     C      0.872300000000     0.667900000000     0.618500000000     0          
C246     C      0.841300000000     0.619300000000     0.692100000000     0          
H247     H      0.892100000000     0.674400000000     0.580900000000     0          
C248     C      0.844600000000     0.697400000000     0.652100000000     0          
H249     H      0.842000000000     0.593100000000     0.707500000000     0          
C250     C      0.807800000000     0.648300000000     0.726000000000     0          
H251     H      0.847900000000     0.724000000000     0.639000000000     0          
C252     C      0.812000000000     0.688000000000     0.705200000000     0          
H253     H      0.784200000000     0.641000000000     0.760200000000     0          
C254     C      0.778800000000     0.720000000000     0.741000000000     0          
C255     C      0.779400000000     0.720400000000     0.808700000000     0          
H256     H      0.799400000000     0.701000000000     0.831600000000     0          
Zr257    Zr     0.500000000000     0.074150000000     0.500000000000     0          
Zr258    Zr     0.000000000000     0.574150000000     0.500000000000     0          
Zr259    Zr     0.500000000000     0.925850000000     0.500000000000     0          
Zr260    Zr     0.000000000000     0.425850000000     0.500000000000     0          
O261     O      0.500000000000     0.036100000000     0.414300000000     0          
O262     O      0.000000000000     0.536100000000     0.414300000000     0          
O263     O      0.500000000000     0.963900000000     0.414300000000     0          
O264     O      0.000000000000     0.463900000000     0.414300000000     0          
O265     O      0.500000000000     0.036100000000     0.585700000000     0          
O266     O      0.000000000000     0.536100000000     0.585700000000     0          
O267     O      0.500000000000     0.963900000000     0.585700000000     0          
O268     O      0.000000000000     0.463900000000     0.585700000000     0          
O269     O      0.425900000000     0.036000000000     0.500000000000     0          
O270     O      0.925900000000     0.536000000000     0.500000000000     0          
O271     O      0.574100000000     0.964000000000     0.500000000000     0          
O272     O      0.074100000000     0.464000000000     0.500000000000     0          
O273     O      0.574100000000     0.036000000000     0.500000000000     0          
O274     O      0.074100000000     0.536000000000     0.500000000000     0          
O275     O      0.425900000000     0.964000000000     0.500000000000     0          
O276     O      0.925900000000     0.464000000000     0.500000000000     0          
Zr277    Zr     0.424320000000     0.000000000000     0.415250000000     0          
O278     O      0.332400000000     0.000000000000     0.434600000000     0          
Zr279    Zr     0.924320000000     0.500000000000     0.415250000000     0          
O280     O      0.832400000000     0.500000000000     0.434600000000     0          
C281     C      0.715100000000     0.500000000000     0.445600000000     0          
H282     H      0.734300000000     0.500000000000     0.406300000000     0          
C283     C      0.654100000000     0.500000000000     0.444400000000     0          
C284     C      0.617900000000     0.500000000000     0.392000000000     0          
N285     N      0.559100000000     0.500000000000     0.389900000000     0          
C286     C      0.527200000000     0.500000000000     0.447600000000     0          
Zr287    Zr     0.575680000000     0.000000000000     0.415250000000     0          
O288     O      0.667600000000     0.000000000000     0.434600000000     0          
Zr289    Zr     0.075680000000     0.500000000000     0.415250000000     0          
O290     O      0.167600000000     0.500000000000     0.434600000000     0          
C291     C      0.284900000000     0.500000000000     0.445600000000     0          
H292     H      0.265700000000     0.500000000000     0.406300000000     0          
C293     C      0.345900000000     0.500000000000     0.444400000000     0          
C294     C      0.382100000000     0.500000000000     0.392000000000     0          
N295     N      0.440900000000     0.500000000000     0.389900000000     0          
C296     C      0.472800000000     0.500000000000     0.447600000000     0          
Zr297    Zr     0.575680000000     0.000000000000     0.584750000000     0          
O298     O      0.667600000000     0.000000000000     0.565400000000     0          
C299     C      0.784900000000     0.000000000000     0.554400000000     0          
H300     H      0.765700000000     0.000000000000     0.593700000000     0          
C301     C      0.845900000000     0.000000000000     0.555600000000     0          
C302     C      0.882100000000     0.000000000000     0.608000000000     0          
N303     N      0.940900000000     0.000000000000     0.610100000000     0          
C304     C      0.972800000000     0.000000000000     0.552400000000     0          
Zr305    Zr     0.075680000000     0.500000000000     0.584750000000     0          
O306     O      0.167600000000     0.500000000000     0.565400000000     0          
Zr307    Zr     0.424320000000     0.000000000000     0.584750000000     0          
O308     O      0.332400000000     0.000000000000     0.565400000000     0          
C309     C      0.215100000000     0.000000000000     0.554400000000     0          
H310     H      0.234300000000     0.000000000000     0.593700000000     0          
C311     C      0.154100000000     0.000000000000     0.555600000000     0          
C312     C      0.117900000000     0.000000000000     0.608000000000     0          
N313     N      0.059100000000     0.000000000000     0.610100000000     0          
C314     C      0.027200000000     0.000000000000     0.552400000000     0          
Zr315    Zr     0.924320000000     0.500000000000     0.584750000000     0          
O316     O      0.832400000000     0.500000000000     0.565400000000     0          
C317     C      0.307900000000     0.000000000000     0.500000000000     0          
C318     C      0.245800000000     0.000000000000     0.500000000000     0          
C319     C      0.121700000000     0.000000000000     0.500000000000     0          
C320     C      0.062500000000     0.000000000000     0.500000000000     0          
C321     C      0.807900000000     0.500000000000     0.500000000000     0          
C322     C      0.745800000000     0.500000000000     0.500000000000     0          
C323     C      0.621700000000     0.500000000000     0.500000000000     0          
C324     C      0.562500000000     0.500000000000     0.500000000000     0          
C325     C      0.692100000000     0.000000000000     0.500000000000     0          
C326     C      0.754200000000     0.000000000000     0.500000000000     0          
C327     C      0.878300000000     0.000000000000     0.500000000000     0          
C328     C      0.937500000000     0.000000000000     0.500000000000     0          
C329     C      0.192100000000     0.500000000000     0.500000000000     0          
C330     C      0.254200000000     0.500000000000     0.500000000000     0          
C331     C      0.378300000000     0.500000000000     0.500000000000     0          
C332     C      0.437500000000     0.500000000000     0.500000000000     0          
C333     C      0.750000000000     0.250000000000     0.709100000000     0          
H334     H      0.750000000000     0.250000000000     0.664100000000     0          
C335     C      0.750000000000     0.250000000000     0.841000000000     0          
C336     C      0.750000000000     0.250000000000     0.909300000000     0          
C337     C      0.750000000000     0.250000000000     0.964200000000     0          
C338     C      0.250000000000     0.750000000000     0.709100000000     0          
H339     H      0.250000000000     0.750000000000     0.664100000000     0          
C340     C      0.250000000000     0.750000000000     0.841000000000     0          
C341     C      0.250000000000     0.750000000000     0.909300000000     0          
C342     C      0.250000000000     0.750000000000     0.964200000000     0          
C343     C      0.250000000000     0.250000000000     0.290900000000     0          
H344     H      0.250000000000     0.250000000000     0.335900000000     0          
C345     C      0.250000000000     0.250000000000     0.159000000000     0          
C346     C      0.250000000000     0.250000000000     0.090700000000     0          
C347     C      0.250000000000     0.250000000000     0.035800000000     0          
C348     C      0.750000000000     0.750000000000     0.290900000000     0          
H349     H      0.750000000000     0.750000000000     0.335900000000     0          
C350     C      0.750000000000     0.750000000000     0.159000000000     0          
C351     C      0.750000000000     0.750000000000     0.090700000000     0          
C352     C      0.750000000000     0.750000000000     0.035800000000     0          
C353     C      0.250000000000     0.750000000000     0.290900000000     0          
H354     H      0.250000000000     0.750000000000     0.335900000000     0          
C355     C      0.250000000000     0.750000000000     0.159000000000     0          
C356     C      0.250000000000     0.750000000000     0.090700000000     0          
C357     C      0.250000000000     0.750000000000     0.035800000000     0          
C358     C      0.750000000000     0.250000000000     0.290900000000     0          
H359     H      0.750000000000     0.250000000000     0.335900000000     0          
C360     C      0.750000000000     0.250000000000     0.159000000000     0          
C361     C      0.750000000000     0.250000000000     0.090700000000     0          
C362     C      0.750000000000     0.250000000000     0.035800000000     0          
C363     C      0.750000000000     0.750000000000     0.709100000000     0          
H364     H      0.750000000000     0.750000000000     0.664100000000     0          
C365     C      0.750000000000     0.750000000000     0.841000000000     0          
C366     C      0.750000000000     0.750000000000     0.909300000000     0          
C367     C      0.750000000000     0.750000000000     0.964200000000     0          
C368     C      0.250000000000     0.250000000000     0.709100000000     0          
H369     H      0.250000000000     0.250000000000     0.664100000000     0          
C370     C      0.250000000000     0.250000000000     0.841000000000     0          
C371     C      0.250000000000     0.250000000000     0.909300000000     0          
C372     C      0.250000000000     0.250000000000     0.964200000000     0          
H373     H      0.635800000000     0.500000000000     0.340670000000     0          
H374     H      0.364200000000     0.500000000000     0.340670000000     0          
H375     H      0.643170000000     0.500000000000     0.549520000000     0          
H376     H      0.544050000000     0.500000000000     0.551080000000     0          
H377     H      0.356830000000     0.500000000000     0.549520000000     0          
H378     H      0.455950000000     0.500000000000     0.551080000000     0          
H379     H      0.864200000000     0.000000000000     0.659330000000     0          
H380     H      0.856830000000     0.000000000000     0.450480000000     0          
H381     H      0.955950000000     0.000000000000     0.448920000000     0          
H382     H      0.135800000000     0.000000000000     0.659330000000     0          
H383     H      0.143170000000     0.000000000000     0.450480000000     0          
H384     H      0.044050000000     0.000000000000     0.448920000000     0          


