data_HIKSIF

_audit_creation_method RASPA-1.0
_audit_creation_date 2020-11-2
_audit_author_name 'Rocio Bueno-Perez'

_cell_length_a    19.51
_cell_length_b    19.51
_cell_length_c    19.51
_cell_angle_alpha 90
_cell_angle_beta  90
_cell_angle_gamma 90
_cell_volume      7426.29

_symmetry_cell_setting          cubic
_symmetry_space_group_name_Hall 'P 1'
_symmetry_space_group_name_H-M  'P 1'
_symmetry_Int_Tables_number     1

_symmetry_equiv_pos_as_xyz 'x,y,z'

loop_
_atom_site_label
_atom_site_type_symbol
_atom_site_fract_x
_atom_site_fract_y
_atom_site_fract_z
_atom_site_charge
Cu1      Cu     0.500000000000     0.000000000000     0.500000000000     0          
Zr1      Zr     0.931070000000     0.931070000000     0.068930000000     0          
C1       C      0.837900000000     0.000000000000     0.162100000000     0          
C2       C      0.628400000000     0.000000000000     0.371600000000     0          
C3       C      0.683100000000     0.000000000000     0.316900000000     0          
C8       C      0.783200000000     0.000000000000     0.216800000000     0          
C4       C      0.557300000000     0.000000000000     0.360300000000     0          
C5       C      0.534700000000     0.000000000000     0.291400000000     0          
H1       H      0.563600000000     0.000000000000     0.251500000000     0          
C6       C      0.757800000000     0.939500000000     0.242200000000     0          
H2       H      0.774900000000     0.897200000000     0.225100000000     0          
C7       C      0.708500000000     0.939300000000     0.291500000000     0          
H3       H      0.691500000000     0.897000000000     0.308500000000     0          
O1       O      0.858100000000     0.942900000000     0.141900000000     0          
N1       N      0.500000000000     0.000000000000     0.399600000000     0          
O2       O      0.000000000000     0.883000000000     0.000000000000     0          
Cu1      Cu     0.000000000000     0.500000000000     0.500000000000     0          
Zr1      Zr     0.068930000000     0.931070000000     0.068930000000     0          
C1       C      0.000000000000     0.837900000000     0.162100000000     0          
C2       C      0.000000000000     0.628400000000     0.371600000000     0          
C3       C      0.000000000000     0.683100000000     0.316900000000     0          
C8       C      0.000000000000     0.783200000000     0.216800000000     0          
C4       C      0.000000000000     0.557300000000     0.360300000000     0          
C5       C      0.000000000000     0.534700000000     0.291400000000     0          
H1       H      0.000000000000     0.563600000000     0.251500000000     0          
C6       C      0.060500000000     0.757800000000     0.242200000000     0          
H2       H      0.102800000000     0.774900000000     0.225100000000     0          
C7       C      0.060700000000     0.708500000000     0.291500000000     0          
H3       H      0.103000000000     0.691500000000     0.308500000000     0          
O1       O      0.057100000000     0.858100000000     0.141900000000     0          
N1       N      0.000000000000     0.500000000000     0.399600000000     0          
O2       O      0.117000000000     0.000000000000     0.000000000000     0          
Zr1      Zr     0.068930000000     0.068930000000     0.068930000000     0          
C1       C      0.162100000000     0.000000000000     0.162100000000     0          
C2       C      0.371600000000     0.000000000000     0.371600000000     0          
C3       C      0.316900000000     0.000000000000     0.316900000000     0          
C8       C      0.216800000000     0.000000000000     0.216800000000     0          
C4       C      0.442700000000     0.000000000000     0.360300000000     0          
C5       C      0.465300000000     0.000000000000     0.291400000000     0          
H1       H      0.436400000000     0.000000000000     0.251500000000     0          
C6       C      0.242200000000     0.060500000000     0.242200000000     0          
H2       H      0.225100000000     0.102800000000     0.225100000000     0          
C7       C      0.291500000000     0.060700000000     0.291500000000     0          
H3       H      0.308500000000     0.103000000000     0.308500000000     0          
O1       O      0.141900000000     0.057100000000     0.141900000000     0          
O2       O      0.000000000000     0.117000000000     0.000000000000     0          
Zr1      Zr     0.931070000000     0.068930000000     0.068930000000     0          
C1       C      0.000000000000     0.162100000000     0.162100000000     0          
C2       C      0.000000000000     0.371600000000     0.371600000000     0          
C3       C      0.000000000000     0.316900000000     0.316900000000     0          
C8       C      0.000000000000     0.216800000000     0.216800000000     0          
C4       C      0.000000000000     0.442700000000     0.360300000000     0          
C5       C      0.000000000000     0.465300000000     0.291400000000     0          
H1       H      0.000000000000     0.436400000000     0.251500000000     0          
C6       C      0.939500000000     0.242200000000     0.242200000000     0          
H2       H      0.897200000000     0.225100000000     0.225100000000     0          
C7       C      0.939300000000     0.291500000000     0.291500000000     0          
H3       H      0.897000000000     0.308500000000     0.308500000000     0          
O1       O      0.942900000000     0.141900000000     0.141900000000     0          
O2       O      0.883000000000     0.000000000000     0.000000000000     0          
Zr1      Zr     0.931070000000     0.068930000000     0.931070000000     0          
C1       C      0.837900000000     0.000000000000     0.837900000000     0          
C2       C      0.628400000000     0.000000000000     0.628400000000     0          
C3       C      0.683100000000     0.000000000000     0.683100000000     0          
C8       C      0.783200000000     0.000000000000     0.783200000000     0          
C4       C      0.557300000000     0.000000000000     0.639700000000     0          
C5       C      0.534700000000     0.000000000000     0.708600000000     0          
H1       H      0.563600000000     0.000000000000     0.748500000000     0          
C6       C      0.757800000000     0.060500000000     0.757800000000     0          
H2       H      0.774900000000     0.102800000000     0.774900000000     0          
C7       C      0.708500000000     0.060700000000     0.708500000000     0          
H3       H      0.691500000000     0.103000000000     0.691500000000     0          
O1       O      0.858100000000     0.057100000000     0.858100000000     0          
N1       N      0.500000000000     0.000000000000     0.600400000000     0          
Zr1      Zr     0.931070000000     0.931070000000     0.931070000000     0          
C1       C      0.000000000000     0.837900000000     0.837900000000     0          
C2       C      0.000000000000     0.628400000000     0.628400000000     0          
C3       C      0.000000000000     0.683100000000     0.683100000000     0          
C8       C      0.000000000000     0.783200000000     0.783200000000     0          
C4       C      0.000000000000     0.557300000000     0.639700000000     0          
C5       C      0.000000000000     0.534700000000     0.708600000000     0          
H1       H      0.000000000000     0.563600000000     0.748500000000     0          
C6       C      0.939500000000     0.757800000000     0.757800000000     0          
H2       H      0.897200000000     0.774900000000     0.774900000000     0          
C7       C      0.939300000000     0.708500000000     0.708500000000     0          
H3       H      0.897000000000     0.691500000000     0.691500000000     0          
O1       O      0.942900000000     0.858100000000     0.858100000000     0          
N1       N      0.000000000000     0.500000000000     0.600400000000     0          
Zr1      Zr     0.068930000000     0.931070000000     0.931070000000     0          
C1       C      0.162100000000     0.000000000000     0.837900000000     0          
C2       C      0.371600000000     0.000000000000     0.628400000000     0          
C3       C      0.316900000000     0.000000000000     0.683100000000     0          
C8       C      0.216800000000     0.000000000000     0.783200000000     0          
C4       C      0.442700000000     0.000000000000     0.639700000000     0          
C5       C      0.465300000000     0.000000000000     0.708600000000     0          
H1       H      0.436400000000     0.000000000000     0.748500000000     0          
C6       C      0.242200000000     0.939500000000     0.757800000000     0          
H2       H      0.225100000000     0.897200000000     0.774900000000     0          
C7       C      0.291500000000     0.939300000000     0.708500000000     0          
H3       H      0.308500000000     0.897000000000     0.691500000000     0          
O1       O      0.141900000000     0.942900000000     0.858100000000     0          
Zr1      Zr     0.068930000000     0.068930000000     0.931070000000     0          
C1       C      0.000000000000     0.162100000000     0.837900000000     0          
C2       C      0.000000000000     0.371600000000     0.628400000000     0          
C3       C      0.000000000000     0.316900000000     0.683100000000     0          
C8       C      0.000000000000     0.216800000000     0.783200000000     0          
C4       C      0.000000000000     0.442700000000     0.639700000000     0          
C5       C      0.000000000000     0.465300000000     0.708600000000     0          
H1       H      0.000000000000     0.436400000000     0.748500000000     0          
C6       C      0.060500000000     0.242200000000     0.757800000000     0          
H2       H      0.102800000000     0.225100000000     0.774900000000     0          
C7       C      0.060700000000     0.291500000000     0.708500000000     0          
H3       H      0.103000000000     0.308500000000     0.691500000000     0          
O1       O      0.057100000000     0.141900000000     0.858100000000     0          
Cu1      Cu     0.500000000000     0.500000000000     0.000000000000     0          
C1       C      0.162100000000     0.837900000000     0.000000000000     0          
C2       C      0.371600000000     0.628400000000     0.000000000000     0          
C3       C      0.316900000000     0.683100000000     0.000000000000     0          
C8       C      0.216800000000     0.783200000000     0.000000000000     0          
C4       C      0.360300000000     0.557300000000     0.000000000000     0          
C5       C      0.291400000000     0.534700000000     0.000000000000     0          
H1       H      0.251500000000     0.563600000000     0.000000000000     0          
C6       C      0.242200000000     0.757800000000     0.939500000000     0          
H2       H      0.225100000000     0.774900000000     0.897200000000     0          
C7       C      0.291500000000     0.708500000000     0.939300000000     0          
H3       H      0.308500000000     0.691500000000     0.897000000000     0          
O1       O      0.141900000000     0.858100000000     0.942900000000     0          
N1       N      0.399600000000     0.500000000000     0.000000000000     0          
O2       O      0.000000000000     0.000000000000     0.883000000000     0          
C1       C      0.162100000000     0.162100000000     0.000000000000     0          
C2       C      0.371600000000     0.371600000000     0.000000000000     0          
C3       C      0.316900000000     0.316900000000     0.000000000000     0          
C8       C      0.216800000000     0.216800000000     0.000000000000     0          
C4       C      0.442700000000     0.360300000000     0.000000000000     0          
C5       C      0.465300000000     0.291400000000     0.000000000000     0          
H1       H      0.436400000000     0.251500000000     0.000000000000     0          
C6       C      0.242200000000     0.242200000000     0.939500000000     0          
H2       H      0.225100000000     0.225100000000     0.897200000000     0          
C7       C      0.291500000000     0.291500000000     0.939300000000     0          
H3       H      0.308500000000     0.308500000000     0.897000000000     0          
O1       O      0.141900000000     0.141900000000     0.942900000000     0          
N1       N      0.500000000000     0.399600000000     0.000000000000     0          
C1       C      0.837900000000     0.162100000000     0.000000000000     0          
C2       C      0.628400000000     0.371600000000     0.000000000000     0          
C3       C      0.683100000000     0.316900000000     0.000000000000     0          
C8       C      0.783200000000     0.216800000000     0.000000000000     0          
C4       C      0.639700000000     0.442700000000     0.000000000000     0          
C5       C      0.708600000000     0.465300000000     0.000000000000     0          
H1       H      0.748500000000     0.436400000000     0.000000000000     0          
C6       C      0.757800000000     0.242200000000     0.939500000000     0          
H2       H      0.774900000000     0.225100000000     0.897200000000     0          
C7       C      0.708500000000     0.291500000000     0.939300000000     0          
H3       H      0.691500000000     0.308500000000     0.897000000000     0          
O1       O      0.858100000000     0.141900000000     0.942900000000     0          
N1       N      0.600400000000     0.500000000000     0.000000000000     0          
C1       C      0.837900000000     0.837900000000     0.000000000000     0          
C2       C      0.628400000000     0.628400000000     0.000000000000     0          
C3       C      0.683100000000     0.683100000000     0.000000000000     0          
C8       C      0.783200000000     0.783200000000     0.000000000000     0          
C4       C      0.557300000000     0.639700000000     0.000000000000     0          
C5       C      0.534700000000     0.708600000000     0.000000000000     0          
H1       H      0.563600000000     0.748500000000     0.000000000000     0          
C6       C      0.757800000000     0.757800000000     0.939500000000     0          
H2       H      0.774900000000     0.774900000000     0.897200000000     0          
C7       C      0.708500000000     0.708500000000     0.939300000000     0          
H3       H      0.691500000000     0.691500000000     0.897000000000     0          
O1       O      0.858100000000     0.858100000000     0.942900000000     0          
N1       N      0.500000000000     0.600400000000     0.000000000000     0          
C4       C      0.360300000000     0.442700000000     0.000000000000     0          
C5       C      0.291400000000     0.465300000000     0.000000000000     0          
H1       H      0.251500000000     0.436400000000     0.000000000000     0          
C6       C      0.242200000000     0.242200000000     0.060500000000     0          
H2       H      0.225100000000     0.225100000000     0.102800000000     0          
C7       C      0.291500000000     0.291500000000     0.060700000000     0          
H3       H      0.308500000000     0.308500000000     0.103000000000     0          
O1       O      0.141900000000     0.141900000000     0.057100000000     0          
O2       O      0.000000000000     0.000000000000     0.117000000000     0          
C4       C      0.557300000000     0.360300000000     0.000000000000     0          
C5       C      0.534700000000     0.291400000000     0.000000000000     0          
H1       H      0.563600000000     0.251500000000     0.000000000000     0          
C6       C      0.757800000000     0.242200000000     0.060500000000     0          
H2       H      0.774900000000     0.225100000000     0.102800000000     0          
C7       C      0.708500000000     0.291500000000     0.060700000000     0          
H3       H      0.691500000000     0.308500000000     0.103000000000     0          
O1       O      0.858100000000     0.141900000000     0.057100000000     0          
C4       C      0.639700000000     0.557300000000     0.000000000000     0          
C5       C      0.708600000000     0.534700000000     0.000000000000     0          
H1       H      0.748500000000     0.563600000000     0.000000000000     0          
C6       C      0.757800000000     0.757800000000     0.060500000000     0          
H2       H      0.774900000000     0.774900000000     0.102800000000     0          
C7       C      0.708500000000     0.708500000000     0.060700000000     0          
H3       H      0.691500000000     0.691500000000     0.103000000000     0          
O1       O      0.858100000000     0.858100000000     0.057100000000     0          
C4       C      0.442700000000     0.639700000000     0.000000000000     0          
C5       C      0.465300000000     0.708600000000     0.000000000000     0          
H1       H      0.436400000000     0.748500000000     0.000000000000     0          
C6       C      0.242200000000     0.757800000000     0.060500000000     0          
H2       H      0.225100000000     0.774900000000     0.102800000000     0          
C7       C      0.291500000000     0.708500000000     0.060700000000     0          
H3       H      0.308500000000     0.691500000000     0.103000000000     0          
O1       O      0.141900000000     0.858100000000     0.057100000000     0          
C4       C      0.000000000000     0.360300000000     0.557300000000     0          
C5       C      0.000000000000     0.291400000000     0.534700000000     0          
H1       H      0.000000000000     0.251500000000     0.563600000000     0          
C6       C      0.939500000000     0.242200000000     0.757800000000     0          
H2       H      0.897200000000     0.225100000000     0.774900000000     0          
C7       C      0.939300000000     0.291500000000     0.708500000000     0          
H3       H      0.897000000000     0.308500000000     0.691500000000     0          
O1       O      0.942900000000     0.141900000000     0.858100000000     0          
N1       N      0.000000000000     0.399600000000     0.500000000000     0          
C4       C      0.000000000000     0.639700000000     0.442700000000     0          
C5       C      0.000000000000     0.708600000000     0.465300000000     0          
H1       H      0.000000000000     0.748500000000     0.436400000000     0          
C6       C      0.939500000000     0.757800000000     0.242200000000     0          
H2       H      0.897200000000     0.774900000000     0.225100000000     0          
C7       C      0.939300000000     0.708500000000     0.291500000000     0          
H3       H      0.897000000000     0.691500000000     0.308500000000     0          
O1       O      0.942900000000     0.858100000000     0.141900000000     0          
N1       N      0.000000000000     0.600400000000     0.500000000000     0          
C4       C      0.360300000000     0.000000000000     0.442700000000     0          
C5       C      0.291400000000     0.000000000000     0.465300000000     0          
H1       H      0.251500000000     0.000000000000     0.436400000000     0          
C6       C      0.242200000000     0.939500000000     0.242200000000     0          
H2       H      0.225100000000     0.897200000000     0.225100000000     0          
C7       C      0.291500000000     0.939300000000     0.291500000000     0          
H3       H      0.308500000000     0.897000000000     0.308500000000     0          
O1       O      0.141900000000     0.942900000000     0.141900000000     0          
N1       N      0.399600000000     0.000000000000     0.500000000000     0          
C4       C      0.000000000000     0.360300000000     0.442700000000     0          
C5       C      0.000000000000     0.291400000000     0.465300000000     0          
H1       H      0.000000000000     0.251500000000     0.436400000000     0          
C6       C      0.060500000000     0.242200000000     0.242200000000     0          
H2       H      0.102800000000     0.225100000000     0.225100000000     0          
C7       C      0.060700000000     0.291500000000     0.291500000000     0          
H3       H      0.103000000000     0.308500000000     0.308500000000     0          
O1       O      0.057100000000     0.141900000000     0.141900000000     0          
C4       C      0.639700000000     0.000000000000     0.442700000000     0          
C5       C      0.708600000000     0.000000000000     0.465300000000     0          
H1       H      0.748500000000     0.000000000000     0.436400000000     0          
C6       C      0.757800000000     0.060500000000     0.242200000000     0          
H2       H      0.774900000000     0.102800000000     0.225100000000     0          
C7       C      0.708500000000     0.060700000000     0.291500000000     0          
H3       H      0.691500000000     0.103000000000     0.308500000000     0          
O1       O      0.858100000000     0.057100000000     0.141900000000     0          
N1       N      0.600400000000     0.000000000000     0.500000000000     0          
C4       C      0.000000000000     0.639700000000     0.557300000000     0          
C5       C      0.000000000000     0.708600000000     0.534700000000     0          
H1       H      0.000000000000     0.748500000000     0.563600000000     0          
C6       C      0.060500000000     0.757800000000     0.757800000000     0          
H2       H      0.102800000000     0.774900000000     0.774900000000     0          
C7       C      0.060700000000     0.708500000000     0.708500000000     0          
H3       H      0.103000000000     0.691500000000     0.691500000000     0          
O1       O      0.057100000000     0.858100000000     0.858100000000     0          
C4       C      0.360300000000     0.000000000000     0.557300000000     0          
C5       C      0.291400000000     0.000000000000     0.534700000000     0          
H1       H      0.251500000000     0.000000000000     0.563600000000     0          
C6       C      0.242200000000     0.060500000000     0.757800000000     0          
H2       H      0.225100000000     0.102800000000     0.774900000000     0          
C7       C      0.291500000000     0.060700000000     0.708500000000     0          
H3       H      0.308500000000     0.103000000000     0.691500000000     0          
O1       O      0.141900000000     0.057100000000     0.858100000000     0          
C4       C      0.639700000000     0.000000000000     0.557300000000     0          
C5       C      0.708600000000     0.000000000000     0.534700000000     0          
H1       H      0.748500000000     0.000000000000     0.563600000000     0          
C6       C      0.757800000000     0.939500000000     0.757800000000     0          
H2       H      0.774900000000     0.897200000000     0.774900000000     0          
C7       C      0.708500000000     0.939300000000     0.708500000000     0          
H3       H      0.691500000000     0.897000000000     0.691500000000     0          
O1       O      0.858100000000     0.942900000000     0.858100000000     0          


