data_HIXDIE

_audit_creation_method RASPA-1.0
_audit_creation_date 2020-11-2
_audit_author_name 'Rocio Bueno-Perez'

_cell_length_a    23.2506
_cell_length_b    34.1088
_cell_length_c    14.8706
_cell_angle_alpha 90
_cell_angle_beta  90
_cell_angle_gamma 90
_cell_volume      11793.1

_symmetry_cell_setting          triclinic
_symmetry_space_group_name_Hall 'P 1'
_symmetry_space_group_name_H-M  'P 1'
_symmetry_Int_Tables_number     1

_symmetry_equiv_pos_as_xyz 'x,y,z'

loop_
_atom_site_label
_atom_site_type_symbol
_atom_site_fract_x
_atom_site_fract_y
_atom_site_fract_z
_atom_site_charge
O1       O      0.057100000000     0.104380000000     0.410080000000     0          
O2       O      0.108830000000     0.058890000000     0.335480000000     0          
C3       C      0.130780000000     0.125970000000     0.314330000000     0          
C4       C      0.096570000000     0.093540000000     0.356580000000     0          
C5       C      0.171520000000     0.118070000000     0.251270000000     0          
H6       H      0.178900000000     0.091800000000     0.233700000000     0          
C7       C      0.151500000000     0.194470000000     0.302100000000     0          
H8       H      0.144600000000     0.220700000000     0.320300000000     0          
C9       C      0.224820000000     0.219770000000     0.098110000000     0          
H10      H      0.208100000000     0.198500000000     0.066400000000     0          
C11      C      0.223320000000     0.219720000000     0.191870000000     0          
C12      C      0.120650000000     0.164380000000     0.341540000000     0          
H13      H      0.092900000000     0.169900000000     0.386700000000     0          
C14      C      0.191670000000     0.187110000000     0.237650000000     0          
C15      C      0.202400000000     0.148830000000     0.212400000000     0          
H16      H      0.230900000000     0.143400000000     0.168400000000     0          
C17      C      0.289200000000     0.216800000000     0.375500000000     0          
H18      H      0.265600000000     0.193700000000     0.388500000000     0          
H19      H      0.305900000000     0.226700000000     0.431500000000     0          
H20      H      0.320100000000     0.209500000000     0.333900000000     0          
C21      C      0.470100000000     0.026400000000     0.440400000000     0          
O22      O      0.557100000000     0.604380000000     0.410080000000     0          
O23      O      0.608830000000     0.558890000000     0.335480000000     0          
C24      C      0.630780000000     0.625970000000     0.314330000000     0          
C25      C      0.596570000000     0.593540000000     0.356580000000     0          
C26      C      0.671520000000     0.618070000000     0.251270000000     0          
H27      H      0.678900000000     0.591800000000     0.233700000000     0          
C28      C      0.651500000000     0.694470000000     0.302100000000     0          
H29      H      0.644600000000     0.720700000000     0.320300000000     0          
C30      C      0.724820000000     0.719770000000     0.098110000000     0          
H31      H      0.708100000000     0.698500000000     0.066400000000     0          
C32      C      0.723320000000     0.719720000000     0.191870000000     0          
C33      C      0.620650000000     0.664380000000     0.341540000000     0          
H34      H      0.592900000000     0.669900000000     0.386700000000     0          
C35      C      0.691670000000     0.687110000000     0.237650000000     0          
C36      C      0.702400000000     0.648830000000     0.212400000000     0          
H37      H      0.730900000000     0.643400000000     0.168400000000     0          
C38      C      0.789200000000     0.716800000000     0.375500000000     0          
H39      H      0.765600000000     0.693700000000     0.388500000000     0          
H40      H      0.805900000000     0.726700000000     0.431500000000     0          
H41      H      0.820100000000     0.709500000000     0.333900000000     0          
C42      C      0.970100000000     0.526400000000     0.440400000000     0          
O43      O      0.942900000000     0.895620000000     0.410080000000     0          
O44      O      0.891170000000     0.941110000000     0.335480000000     0          
C45      C      0.869220000000     0.874030000000     0.314330000000     0          
C46      C      0.903430000000     0.906460000000     0.356580000000     0          
C47      C      0.828480000000     0.881930000000     0.251270000000     0          
H48      H      0.821100000000     0.908200000000     0.233700000000     0          
C49      C      0.848500000000     0.805530000000     0.302100000000     0          
H50      H      0.855400000000     0.779300000000     0.320300000000     0          
C51      C      0.775180000000     0.780230000000     0.098110000000     0          
H52      H      0.791900000000     0.801500000000     0.066400000000     0          
C53      C      0.776680000000     0.780280000000     0.191870000000     0          
C54      C      0.879350000000     0.835620000000     0.341540000000     0          
H55      H      0.907100000000     0.830100000000     0.386700000000     0          
C56      C      0.808330000000     0.812890000000     0.237650000000     0          
C57      C      0.797600000000     0.851170000000     0.212400000000     0          
H58      H      0.769100000000     0.856600000000     0.168400000000     0          
O59      O      0.442900000000     0.395620000000     0.410080000000     0          
O60      O      0.391170000000     0.441110000000     0.335480000000     0          
C61      C      0.369220000000     0.374030000000     0.314330000000     0          
C62      C      0.403430000000     0.406460000000     0.356580000000     0          
C63      C      0.328480000000     0.381930000000     0.251270000000     0          
H64      H      0.321100000000     0.408200000000     0.233700000000     0          
C65      C      0.348500000000     0.305530000000     0.302100000000     0          
H66      H      0.355400000000     0.279300000000     0.320300000000     0          
C67      C      0.275180000000     0.280230000000     0.098110000000     0          
H68      H      0.291900000000     0.301500000000     0.066400000000     0          
C69      C      0.276680000000     0.280280000000     0.191870000000     0          
C70      C      0.379350000000     0.335620000000     0.341540000000     0          
H71      H      0.407100000000     0.330100000000     0.386700000000     0          
C72      C      0.308330000000     0.312890000000     0.237650000000     0          
C73      C      0.297600000000     0.351170000000     0.212400000000     0          
H74      H      0.269100000000     0.356600000000     0.168400000000     0          
O75      O      0.942900000000     0.104380000000     0.589920000000     0          
O76      O      0.891170000000     0.058890000000     0.664520000000     0          
C77      C      0.869220000000     0.125970000000     0.685670000000     0          
C78      C      0.903430000000     0.093540000000     0.643420000000     0          
C79      C      0.828480000000     0.118070000000     0.748730000000     0          
H80      H      0.821100000000     0.091800000000     0.766300000000     0          
C81      C      0.848500000000     0.194470000000     0.697900000000     0          
H82      H      0.855400000000     0.220700000000     0.679700000000     0          
C83      C      0.775180000000     0.219770000000     0.901890000000     0          
H84      H      0.791900000000     0.198500000000     0.933600000000     0          
C85      C      0.776680000000     0.219720000000     0.808130000000     0          
C86      C      0.879350000000     0.164380000000     0.658460000000     0          
H87      H      0.907100000000     0.169900000000     0.613300000000     0          
C88      C      0.808330000000     0.187110000000     0.762350000000     0          
C89      C      0.797600000000     0.148830000000     0.787600000000     0          
H90      H      0.769100000000     0.143400000000     0.831600000000     0          
O91      O      0.442900000000     0.604380000000     0.589920000000     0          
O92      O      0.391170000000     0.558890000000     0.664520000000     0          
C93      C      0.369220000000     0.625970000000     0.685670000000     0          
C94      C      0.403430000000     0.593540000000     0.643420000000     0          
C95      C      0.328480000000     0.618070000000     0.748730000000     0          
H96      H      0.321100000000     0.591800000000     0.766300000000     0          
C97      C      0.348500000000     0.694470000000     0.697900000000     0          
H98      H      0.355400000000     0.720700000000     0.679700000000     0          
C99      C      0.275180000000     0.719770000000     0.901890000000     0          
H100     H      0.291900000000     0.698500000000     0.933600000000     0          
C101     C      0.276680000000     0.719720000000     0.808130000000     0          
C102     C      0.379350000000     0.664380000000     0.658460000000     0          
H103     H      0.407100000000     0.669900000000     0.613300000000     0          
C104     C      0.308330000000     0.687110000000     0.762350000000     0          
C105     C      0.297600000000     0.648830000000     0.787600000000     0          
H106     H      0.269100000000     0.643400000000     0.831600000000     0          
C107     C      0.210800000000     0.716800000000     0.624500000000     0          
H108     H      0.234400000000     0.693700000000     0.611500000000     0          
H109     H      0.194100000000     0.726700000000     0.568500000000     0          
H110     H      0.179900000000     0.709500000000     0.666100000000     0          
O111     O      0.057100000000     0.895620000000     0.589920000000     0          
O112     O      0.108830000000     0.941110000000     0.664520000000     0          
C113     C      0.130780000000     0.874030000000     0.685670000000     0          
C114     C      0.096570000000     0.906460000000     0.643420000000     0          
C115     C      0.171520000000     0.881930000000     0.748730000000     0          
H116     H      0.178900000000     0.908200000000     0.766300000000     0          
C117     C      0.151500000000     0.805530000000     0.697900000000     0          
H118     H      0.144600000000     0.779300000000     0.679700000000     0          
C119     C      0.224820000000     0.780230000000     0.901890000000     0          
H120     H      0.208100000000     0.801500000000     0.933600000000     0          
C121     C      0.223320000000     0.780280000000     0.808130000000     0          
C122     C      0.120650000000     0.835620000000     0.658460000000     0          
H123     H      0.092900000000     0.830100000000     0.613300000000     0          
C124     C      0.191670000000     0.812890000000     0.762350000000     0          
C125     C      0.202400000000     0.851170000000     0.787600000000     0          
H126     H      0.230900000000     0.856600000000     0.831600000000     0          
C127     C      0.470100000000     0.973600000000     0.559600000000     0          
O128     O      0.557100000000     0.395620000000     0.589920000000     0          
O129     O      0.608830000000     0.441110000000     0.664520000000     0          
C130     C      0.630780000000     0.374030000000     0.685670000000     0          
C131     C      0.596570000000     0.406460000000     0.643420000000     0          
C132     C      0.671520000000     0.381930000000     0.748730000000     0          
H133     H      0.678900000000     0.408200000000     0.766300000000     0          
C134     C      0.651500000000     0.305530000000     0.697900000000     0          
H135     H      0.644600000000     0.279300000000     0.679700000000     0          
C136     C      0.724820000000     0.280230000000     0.901890000000     0          
H137     H      0.708100000000     0.301500000000     0.933600000000     0          
C138     C      0.723320000000     0.280280000000     0.808130000000     0          
C139     C      0.620650000000     0.335620000000     0.658460000000     0          
H140     H      0.592900000000     0.330100000000     0.613300000000     0          
C141     C      0.691670000000     0.312890000000     0.762350000000     0          
C142     C      0.702400000000     0.351170000000     0.787600000000     0          
H143     H      0.730900000000     0.356600000000     0.831600000000     0          
C144     C      0.789200000000     0.283200000000     0.624500000000     0          
H145     H      0.765600000000     0.306300000000     0.611500000000     0          
H146     H      0.805900000000     0.273300000000     0.568500000000     0          
H147     H      0.820100000000     0.290500000000     0.666100000000     0          
C148     C      0.970100000000     0.473600000000     0.559600000000     0          
O149     O      0.942900000000     0.895620000000     0.589920000000     0          
O150     O      0.891170000000     0.941110000000     0.664520000000     0          
C151     C      0.869220000000     0.874030000000     0.685670000000     0          
C152     C      0.903430000000     0.906460000000     0.643420000000     0          
C153     C      0.828480000000     0.881930000000     0.748730000000     0          
H154     H      0.821100000000     0.908200000000     0.766300000000     0          
C155     C      0.848500000000     0.805530000000     0.697900000000     0          
H156     H      0.855400000000     0.779300000000     0.679700000000     0          
C157     C      0.775180000000     0.780230000000     0.901890000000     0          
H158     H      0.791900000000     0.801500000000     0.933600000000     0          
C159     C      0.776680000000     0.780280000000     0.808130000000     0          
C160     C      0.879350000000     0.835620000000     0.658460000000     0          
H161     H      0.907100000000     0.830100000000     0.613300000000     0          
C162     C      0.808330000000     0.812890000000     0.762350000000     0          
C163     C      0.797600000000     0.851170000000     0.787600000000     0          
H164     H      0.769100000000     0.856600000000     0.831600000000     0          
C165     C      0.529900000000     0.973600000000     0.559600000000     0          
O166     O      0.442900000000     0.395620000000     0.589920000000     0          
O167     O      0.391170000000     0.441110000000     0.664520000000     0          
C168     C      0.369220000000     0.374030000000     0.685670000000     0          
C169     C      0.403430000000     0.406460000000     0.643420000000     0          
C170     C      0.328480000000     0.381930000000     0.748730000000     0          
H171     H      0.321100000000     0.408200000000     0.766300000000     0          
C172     C      0.348500000000     0.305530000000     0.697900000000     0          
H173     H      0.355400000000     0.279300000000     0.679700000000     0          
C174     C      0.275180000000     0.280230000000     0.901890000000     0          
H175     H      0.291900000000     0.301500000000     0.933600000000     0          
C176     C      0.276680000000     0.280280000000     0.808130000000     0          
C177     C      0.379350000000     0.335620000000     0.658460000000     0          
H178     H      0.407100000000     0.330100000000     0.613300000000     0          
C179     C      0.308330000000     0.312890000000     0.762350000000     0          
C180     C      0.297600000000     0.351170000000     0.787600000000     0          
H181     H      0.269100000000     0.356600000000     0.831600000000     0          
C182     C      0.210800000000     0.283200000000     0.624500000000     0          
H183     H      0.234400000000     0.306300000000     0.611500000000     0          
H184     H      0.194100000000     0.273300000000     0.568500000000     0          
H185     H      0.179900000000     0.290500000000     0.666100000000     0          
C186     C      0.029900000000     0.473600000000     0.559600000000     0          
O187     O      0.057100000000     0.104380000000     0.589920000000     0          
O188     O      0.108830000000     0.058890000000     0.664520000000     0          
C189     C      0.130780000000     0.125970000000     0.685670000000     0          
C190     C      0.096570000000     0.093540000000     0.643420000000     0          
C191     C      0.171520000000     0.118070000000     0.748730000000     0          
H192     H      0.178900000000     0.091800000000     0.766300000000     0          
C193     C      0.151500000000     0.194470000000     0.697900000000     0          
H194     H      0.144600000000     0.220700000000     0.679700000000     0          
C195     C      0.224820000000     0.219770000000     0.901890000000     0          
H196     H      0.208100000000     0.198500000000     0.933600000000     0          
C197     C      0.223320000000     0.219720000000     0.808130000000     0          
C198     C      0.120650000000     0.164380000000     0.658460000000     0          
H199     H      0.092900000000     0.169900000000     0.613300000000     0          
C200     C      0.191670000000     0.187110000000     0.762350000000     0          
C201     C      0.202400000000     0.148830000000     0.787600000000     0          
H202     H      0.230900000000     0.143400000000     0.831600000000     0          
O203     O      0.557100000000     0.604380000000     0.589920000000     0          
O204     O      0.608830000000     0.558890000000     0.664520000000     0          
C205     C      0.630780000000     0.625970000000     0.685670000000     0          
C206     C      0.596570000000     0.593540000000     0.643420000000     0          
C207     C      0.671520000000     0.618070000000     0.748730000000     0          
H208     H      0.678900000000     0.591800000000     0.766300000000     0          
C209     C      0.651500000000     0.694470000000     0.697900000000     0          
H210     H      0.644600000000     0.720700000000     0.679700000000     0          
C211     C      0.724820000000     0.719770000000     0.901890000000     0          
H212     H      0.708100000000     0.698500000000     0.933600000000     0          
C213     C      0.723320000000     0.719720000000     0.808130000000     0          
C214     C      0.620650000000     0.664380000000     0.658460000000     0          
H215     H      0.592900000000     0.669900000000     0.613300000000     0          
C216     C      0.691670000000     0.687110000000     0.762350000000     0          
C217     C      0.702400000000     0.648830000000     0.787600000000     0          
H218     H      0.730900000000     0.643400000000     0.831600000000     0          
C219     C      0.789200000000     0.716800000000     0.624500000000     0          
H220     H      0.765600000000     0.693700000000     0.611500000000     0          
H221     H      0.805900000000     0.726700000000     0.568500000000     0          
H222     H      0.820100000000     0.709500000000     0.666100000000     0          
O223     O      0.057100000000     0.895620000000     0.410080000000     0          
O224     O      0.108830000000     0.941110000000     0.335480000000     0          
C225     C      0.130780000000     0.874030000000     0.314330000000     0          
C226     C      0.096570000000     0.906460000000     0.356580000000     0          
C227     C      0.171520000000     0.881930000000     0.251270000000     0          
H228     H      0.178900000000     0.908200000000     0.233700000000     0          
C229     C      0.151500000000     0.805530000000     0.302100000000     0          
H230     H      0.144600000000     0.779300000000     0.320300000000     0          
C231     C      0.224820000000     0.780230000000     0.098110000000     0          
H232     H      0.208100000000     0.801500000000     0.066400000000     0          
C233     C      0.223320000000     0.780280000000     0.191870000000     0          
C234     C      0.120650000000     0.835620000000     0.341540000000     0          
H235     H      0.092900000000     0.830100000000     0.386700000000     0          
C236     C      0.191670000000     0.812890000000     0.237650000000     0          
C237     C      0.202400000000     0.851170000000     0.212400000000     0          
H238     H      0.230900000000     0.856600000000     0.168400000000     0          
O239     O      0.557100000000     0.395620000000     0.410080000000     0          
O240     O      0.608830000000     0.441110000000     0.335480000000     0          
C241     C      0.630780000000     0.374030000000     0.314330000000     0          
C242     C      0.596570000000     0.406460000000     0.356580000000     0          
C243     C      0.671520000000     0.381930000000     0.251270000000     0          
H244     H      0.678900000000     0.408200000000     0.233700000000     0          
C245     C      0.651500000000     0.305530000000     0.302100000000     0          
H246     H      0.644600000000     0.279300000000     0.320300000000     0          
C247     C      0.724820000000     0.280230000000     0.098110000000     0          
H248     H      0.708100000000     0.301500000000     0.066400000000     0          
C249     C      0.723320000000     0.280280000000     0.191870000000     0          
C250     C      0.620650000000     0.335620000000     0.341540000000     0          
H251     H      0.592900000000     0.330100000000     0.386700000000     0          
C252     C      0.691670000000     0.312890000000     0.237650000000     0          
C253     C      0.702400000000     0.351170000000     0.212400000000     0          
H254     H      0.730900000000     0.356600000000     0.168400000000     0          
O255     O      0.942900000000     0.104380000000     0.410080000000     0          
O256     O      0.891170000000     0.058890000000     0.335480000000     0          
C257     C      0.869220000000     0.125970000000     0.314330000000     0          
C258     C      0.903430000000     0.093540000000     0.356580000000     0          
C259     C      0.828480000000     0.118070000000     0.251270000000     0          
H260     H      0.821100000000     0.091800000000     0.233700000000     0          
C261     C      0.848500000000     0.194470000000     0.302100000000     0          
H262     H      0.855400000000     0.220700000000     0.320300000000     0          
C263     C      0.775180000000     0.219770000000     0.098110000000     0          
H264     H      0.791900000000     0.198500000000     0.066400000000     0          
C265     C      0.776680000000     0.219720000000     0.191870000000     0          
C266     C      0.879350000000     0.164380000000     0.341540000000     0          
H267     H      0.907100000000     0.169900000000     0.386700000000     0          
C268     C      0.808330000000     0.187110000000     0.237650000000     0          
C269     C      0.797600000000     0.148830000000     0.212400000000     0          
H270     H      0.769100000000     0.143400000000     0.168400000000     0          
C271     C      0.710800000000     0.216800000000     0.375500000000     0          
H272     H      0.734400000000     0.193700000000     0.388500000000     0          
H273     H      0.694100000000     0.226700000000     0.431500000000     0          
H274     H      0.679900000000     0.209500000000     0.333900000000     0          
C275     C      0.529900000000     0.026400000000     0.440400000000     0          
O276     O      0.442900000000     0.604380000000     0.410080000000     0          
O277     O      0.391170000000     0.558890000000     0.335480000000     0          
C278     C      0.369220000000     0.625970000000     0.314330000000     0          
C279     C      0.403430000000     0.593540000000     0.356580000000     0          
C280     C      0.328480000000     0.618070000000     0.251270000000     0          
H281     H      0.321100000000     0.591800000000     0.233700000000     0          
C282     C      0.348500000000     0.694470000000     0.302100000000     0          
H283     H      0.355400000000     0.720700000000     0.320300000000     0          
C284     C      0.275180000000     0.719770000000     0.098110000000     0          
H285     H      0.291900000000     0.698500000000     0.066400000000     0          
C286     C      0.276680000000     0.719720000000     0.191870000000     0          
C287     C      0.379350000000     0.664380000000     0.341540000000     0          
H288     H      0.407100000000     0.669900000000     0.386700000000     0          
C289     C      0.308330000000     0.687110000000     0.237650000000     0          
C290     C      0.297600000000     0.648830000000     0.212400000000     0          
H291     H      0.269100000000     0.643400000000     0.168400000000     0          
C292     C      0.210800000000     0.716800000000     0.375500000000     0          
H293     H      0.234400000000     0.693700000000     0.388500000000     0          
H294     H      0.194100000000     0.726700000000     0.431500000000     0          
H295     H      0.179900000000     0.709500000000     0.333900000000     0          
C296     C      0.029900000000     0.526400000000     0.440400000000     0          
Zr297    Zr     0.076290000000     0.000000000000     0.382250000000     0          
O298     O      0.167620000000     0.000000000000     0.421350000000     0          
C299     C      0.286000000000     0.000000000000     0.420000000000     0          
H300     H      0.265700000000     0.000000000000     0.364500000000     0          
C301     C      0.344900000000     0.000000000000     0.420300000000     0          
H302     H      0.364900000000     0.000000000000     0.364600000000     0          
Zr303    Zr     0.576290000000     0.500000000000     0.382250000000     0          
O304     O      0.667620000000     0.500000000000     0.421350000000     0          
C305     C      0.786000000000     0.500000000000     0.420000000000     0          
H306     H      0.765700000000     0.500000000000     0.364500000000     0          
C307     C      0.844900000000     0.500000000000     0.420300000000     0          
H308     H      0.864900000000     0.500000000000     0.364600000000     0          
Zr309    Zr     0.923710000000     0.000000000000     0.382250000000     0          
O310     O      0.832380000000     0.000000000000     0.421350000000     0          
C311     C      0.714000000000     0.000000000000     0.420000000000     0          
H312     H      0.734300000000     0.000000000000     0.364500000000     0          
C313     C      0.655100000000     0.000000000000     0.420300000000     0          
H314     H      0.635100000000     0.000000000000     0.364600000000     0          
Zr315    Zr     0.423710000000     0.500000000000     0.382250000000     0          
O316     O      0.332380000000     0.500000000000     0.421350000000     0          
C317     C      0.214000000000     0.500000000000     0.420000000000     0          
H318     H      0.234300000000     0.500000000000     0.364500000000     0          
C319     C      0.155100000000     0.500000000000     0.420300000000     0          
H320     H      0.135100000000     0.500000000000     0.364600000000     0          
Zr321    Zr     0.923710000000     0.000000000000     0.617750000000     0          
O322     O      0.832380000000     0.000000000000     0.578650000000     0          
C323     C      0.714000000000     0.000000000000     0.580000000000     0          
H324     H      0.734300000000     0.000000000000     0.635500000000     0          
C325     C      0.655100000000     0.000000000000     0.579700000000     0          
H326     H      0.635100000000     0.000000000000     0.635400000000     0          
Zr327    Zr     0.423710000000     0.500000000000     0.617750000000     0          
O328     O      0.332380000000     0.500000000000     0.578650000000     0          
C329     C      0.214000000000     0.500000000000     0.580000000000     0          
H330     H      0.234300000000     0.500000000000     0.635500000000     0          
C331     C      0.155100000000     0.500000000000     0.579700000000     0          
H332     H      0.135100000000     0.500000000000     0.635400000000     0          
Zr333    Zr     0.076290000000     0.000000000000     0.617750000000     0          
O334     O      0.167620000000     0.000000000000     0.578650000000     0          
C335     C      0.286000000000     0.000000000000     0.580000000000     0          
H336     H      0.265700000000     0.000000000000     0.635500000000     0          
C337     C      0.344900000000     0.000000000000     0.579700000000     0          
H338     H      0.364900000000     0.000000000000     0.635400000000     0          
Zr339    Zr     0.576290000000     0.500000000000     0.617750000000     0          
O340     O      0.667620000000     0.500000000000     0.578650000000     0          
C341     C      0.786000000000     0.500000000000     0.580000000000     0          
H342     H      0.765700000000     0.500000000000     0.635500000000     0          
C343     C      0.844900000000     0.500000000000     0.579700000000     0          
H344     H      0.864900000000     0.500000000000     0.635400000000     0          
Zr345    Zr     0.000000000000     0.071630000000     0.500000000000     0          
Zr346    Zr     0.500000000000     0.571630000000     0.500000000000     0          
Zr347    Zr     0.000000000000     0.928370000000     0.500000000000     0          
Zr348    Zr     0.500000000000     0.428370000000     0.500000000000     0          
O349     O      0.000000000000     0.034960000000     0.379700000000     0          
O350     O      0.500000000000     0.534960000000     0.379700000000     0          
O351     O      0.000000000000     0.965040000000     0.379700000000     0          
O352     O      0.500000000000     0.465040000000     0.379700000000     0          
O353     O      0.000000000000     0.034960000000     0.620300000000     0          
O354     O      0.500000000000     0.534960000000     0.620300000000     0          
O355     O      0.000000000000     0.965040000000     0.620300000000     0          
O356     O      0.500000000000     0.465040000000     0.620300000000     0          
O357     O      0.074150000000     0.035370000000     0.500000000000     0          
C358     C      0.446000000000     0.061000000000     0.500000000000     0          
O359     O      0.574150000000     0.535370000000     0.500000000000     0          
C360     C      0.946000000000     0.561000000000     0.500000000000     0          
O361     O      0.925850000000     0.964630000000     0.500000000000     0          
C362     C      0.554000000000     0.939000000000     0.500000000000     0          
O363     O      0.425850000000     0.464630000000     0.500000000000     0          
C364     C      0.054000000000     0.439000000000     0.500000000000     0          
O365     O      0.925850000000     0.035370000000     0.500000000000     0          
O366     O      0.425850000000     0.535370000000     0.500000000000     0          
O367     O      0.074150000000     0.964630000000     0.500000000000     0          
O368     O      0.574150000000     0.464630000000     0.500000000000     0          
O369     O      0.250000000000     0.250000000000     0.330790000000     0          
C370     C      0.250000000000     0.250000000000     0.049900000000     0          
C371     C      0.250000000000     0.250000000000     0.238300000000     0          
O372     O      0.750000000000     0.750000000000     0.330790000000     0          
C373     C      0.750000000000     0.750000000000     0.049900000000     0          
C374     C      0.750000000000     0.750000000000     0.238300000000     0          
O375     O      0.750000000000     0.250000000000     0.669210000000     0          
C376     C      0.750000000000     0.250000000000     0.950100000000     0          
C377     C      0.750000000000     0.250000000000     0.761700000000     0          
O378     O      0.250000000000     0.750000000000     0.669210000000     0          
C379     C      0.250000000000     0.750000000000     0.950100000000     0          
C380     C      0.250000000000     0.750000000000     0.761700000000     0          
O381     O      0.750000000000     0.750000000000     0.669210000000     0          
C382     C      0.750000000000     0.750000000000     0.950100000000     0          
C383     C      0.750000000000     0.750000000000     0.761700000000     0          
O384     O      0.250000000000     0.250000000000     0.669210000000     0          
C385     C      0.250000000000     0.250000000000     0.950100000000     0          
C386     C      0.250000000000     0.250000000000     0.761700000000     0          
O387     O      0.250000000000     0.750000000000     0.330790000000     0          
C388     C      0.250000000000     0.750000000000     0.049900000000     0          
C389     C      0.250000000000     0.750000000000     0.238300000000     0          
O390     O      0.750000000000     0.250000000000     0.330790000000     0          
C391     C      0.750000000000     0.250000000000     0.049900000000     0          
C392     C      0.750000000000     0.250000000000     0.238300000000     0          
C393     C      0.256200000000     0.000000000000     0.500000000000     0          
C394     C      0.191770000000     0.000000000000     0.500000000000     0          
C395     C      0.376000000000     0.000000000000     0.500000000000     0          
C396     C      0.440000000000     0.000000000000     0.500000000000     0          
C397     C      0.756200000000     0.500000000000     0.500000000000     0          
C398     C      0.691770000000     0.500000000000     0.500000000000     0          
C399     C      0.876000000000     0.500000000000     0.500000000000     0          
C400     C      0.940000000000     0.500000000000     0.500000000000     0          
C401     C      0.743800000000     0.000000000000     0.500000000000     0          
C402     C      0.808230000000     0.000000000000     0.500000000000     0          
C403     C      0.624000000000     0.000000000000     0.500000000000     0          
C404     C      0.560000000000     0.000000000000     0.500000000000     0          
C405     C      0.243800000000     0.500000000000     0.500000000000     0          
C406     C      0.308230000000     0.500000000000     0.500000000000     0          
C407     C      0.124000000000     0.500000000000     0.500000000000     0          
C408     C      0.060000000000     0.500000000000     0.500000000000     0          
H409     H      0.916730000000     0.548580000000     0.554510000000     0          
H410     H      0.920500000000     0.582100000000     0.455880000000     0          
H411     H      0.983360000000     0.577310000000     0.532650000000     0          
H412     H      0.040110000000     0.443440000000     0.427190000000     0          
H413     H      0.036330000000     0.409930000000     0.525820000000     0          
H414     H      0.102960000000     0.438650000000     0.503950000000     0          
H415     H      0.944830000000     0.453190000000     0.605690000000     0          
H416     H      0.055170000000     0.546810000000     0.394310000000     0          
H417     H      0.444830000000     0.953190000000     0.605690000000     0          
H418     H      0.540110000000     0.943440000000     0.427190000000     0          
H419     H      0.536330000000     0.909930000000     0.525820000000     0          
H420     H      0.602960000000     0.938650000000     0.503950000000     0          
H421     H      0.555170000000     0.046810000000     0.394310000000     0          
H422     H      0.416730000000     0.048580000000     0.554510000000     0          
H423     H      0.420500000000     0.082100000000     0.455880000000     0          
H424     H      0.483360000000     0.077310000000     0.532650000000     0          


