data_HIXDEA

_audit_creation_method RASPA-1.0
_audit_creation_date 2020-11-2
_audit_author_name 'Rocio Bueno-Perez'

_cell_length_a    21.484
_cell_length_b    34.5678
_cell_length_c    15.429
_cell_angle_alpha 90
_cell_angle_beta  90
_cell_angle_gamma 90
_cell_volume      11458.4

_symmetry_cell_setting          triclinic
_symmetry_space_group_name_Hall 'P 1'
_symmetry_space_group_name_H-M  'P 1'
_symmetry_Int_Tables_number     1

_symmetry_equiv_pos_as_xyz 'x,y,z'

loop_
_atom_site_label
_atom_site_type_symbol
_atom_site_fract_x
_atom_site_fract_y
_atom_site_fract_z
_atom_site_charge
O1       O      0.061900000000     0.102820000000     0.086300000000     0          
O2       O      0.115900000000     0.058270000000     0.160300000000     0          
C3       C      0.101600000000     0.092720000000     0.141600000000     0          
C4       C      0.178000000000     0.118270000000     0.249000000000     0          
H5       H      0.188100000000     0.092400000000     0.264000000000     0          
C6       C      0.225700000000     0.219400000000     0.405800000000     0          
H7       H      0.208700000000     0.198100000000     0.436700000000     0          
C8       C      0.134400000000     0.124610000000     0.186800000000     0          
C9       C      0.225400000000     0.218800000000     0.314400000000     0          
C10      C      0.208100000000     0.148280000000     0.291200000000     0          
H11      H      0.238300000000     0.143000000000     0.334600000000     0          
C12      C      0.193500000000     0.186120000000     0.269000000000     0          
C13      C      0.150000000000     0.192400000000     0.207900000000     0          
H14      H      0.140000000000     0.218300000000     0.193000000000     0          
C15      C      0.119400000000     0.162690000000     0.166000000000     0          
H16      H      0.088500000000     0.168100000000     0.123600000000     0          
O17      O      0.561900000000     0.602820000000     0.086300000000     0          
O18      O      0.615900000000     0.558270000000     0.160300000000     0          
C19      C      0.601600000000     0.592720000000     0.141600000000     0          
C20      C      0.678000000000     0.618270000000     0.249000000000     0          
H21      H      0.688100000000     0.592400000000     0.264000000000     0          
C22      C      0.725700000000     0.719400000000     0.405800000000     0          
H23      H      0.708700000000     0.698100000000     0.436700000000     0          
C24      C      0.634400000000     0.624610000000     0.186800000000     0          
C25      C      0.725400000000     0.718800000000     0.314400000000     0          
C26      C      0.708100000000     0.648280000000     0.291200000000     0          
H27      H      0.738300000000     0.643000000000     0.334600000000     0          
C28      C      0.693500000000     0.686120000000     0.269000000000     0          
C29      C      0.650000000000     0.692400000000     0.207900000000     0          
H30      H      0.640000000000     0.718300000000     0.193000000000     0          
C31      C      0.619400000000     0.662690000000     0.166000000000     0          
H32      H      0.588500000000     0.668100000000     0.123600000000     0          
O33      O      0.938100000000     0.897180000000     0.086300000000     0          
O34      O      0.884100000000     0.941730000000     0.160300000000     0          
C35      C      0.898400000000     0.907280000000     0.141600000000     0          
C36      C      0.822000000000     0.881730000000     0.249000000000     0          
H37      H      0.811900000000     0.907600000000     0.264000000000     0          
C38      C      0.774300000000     0.780600000000     0.405800000000     0          
H39      H      0.791300000000     0.801900000000     0.436700000000     0          
C40      C      0.865600000000     0.875390000000     0.186800000000     0          
C41      C      0.774600000000     0.781200000000     0.314400000000     0          
C42      C      0.791900000000     0.851720000000     0.291200000000     0          
H43      H      0.761700000000     0.857000000000     0.334600000000     0          
C44      C      0.806500000000     0.813880000000     0.269000000000     0          
C45      C      0.850000000000     0.807600000000     0.207900000000     0          
H46      H      0.860000000000     0.781700000000     0.193000000000     0          
C47      C      0.880600000000     0.837310000000     0.166000000000     0          
H48      H      0.911500000000     0.831900000000     0.123600000000     0          
O49      O      0.438100000000     0.397180000000     0.086300000000     0          
O50      O      0.384100000000     0.441730000000     0.160300000000     0          
C51      C      0.398400000000     0.407280000000     0.141600000000     0          
C52      C      0.322000000000     0.381730000000     0.249000000000     0          
H53      H      0.311900000000     0.407600000000     0.264000000000     0          
C54      C      0.274300000000     0.280600000000     0.405800000000     0          
H55      H      0.291300000000     0.301900000000     0.436700000000     0          
C56      C      0.365600000000     0.375390000000     0.186800000000     0          
C57      C      0.274600000000     0.281200000000     0.314400000000     0          
C58      C      0.291900000000     0.351720000000     0.291200000000     0          
H59      H      0.261700000000     0.357000000000     0.334600000000     0          
C60      C      0.306500000000     0.313880000000     0.269000000000     0          
C61      C      0.350000000000     0.307600000000     0.207900000000     0          
H62      H      0.360000000000     0.281700000000     0.193000000000     0          
C63      C      0.380600000000     0.337310000000     0.166000000000     0          
H64      H      0.411500000000     0.331900000000     0.123600000000     0          
O65      O      0.938100000000     0.102820000000     0.913700000000     0          
O66      O      0.884100000000     0.058270000000     0.839700000000     0          
C67      C      0.898400000000     0.092720000000     0.858400000000     0          
C68      C      0.822000000000     0.118270000000     0.751000000000     0          
H69      H      0.811900000000     0.092400000000     0.736000000000     0          
C70      C      0.774300000000     0.219400000000     0.594200000000     0          
H71      H      0.791300000000     0.198100000000     0.563300000000     0          
C72      C      0.865600000000     0.124610000000     0.813200000000     0          
C73      C      0.774600000000     0.218800000000     0.685600000000     0          
C74      C      0.791900000000     0.148280000000     0.708800000000     0          
H75      H      0.761700000000     0.143000000000     0.665400000000     0          
C76      C      0.806500000000     0.186120000000     0.731000000000     0          
C77      C      0.850000000000     0.192400000000     0.792100000000     0          
H78      H      0.860000000000     0.218300000000     0.807000000000     0          
C79      C      0.880600000000     0.162690000000     0.834000000000     0          
H80      H      0.911500000000     0.168100000000     0.876400000000     0          
O81      O      0.438100000000     0.602820000000     0.913700000000     0          
O82      O      0.384100000000     0.558270000000     0.839700000000     0          
C83      C      0.398400000000     0.592720000000     0.858400000000     0          
C84      C      0.322000000000     0.618270000000     0.751000000000     0          
H85      H      0.311900000000     0.592400000000     0.736000000000     0          
C86      C      0.274300000000     0.719400000000     0.594200000000     0          
H87      H      0.291300000000     0.698100000000     0.563300000000     0          
C88      C      0.365600000000     0.624610000000     0.813200000000     0          
C89      C      0.274600000000     0.718800000000     0.685600000000     0          
C90      C      0.291900000000     0.648280000000     0.708800000000     0          
H91      H      0.261700000000     0.643000000000     0.665400000000     0          
C92      C      0.306500000000     0.686120000000     0.731000000000     0          
C93      C      0.350000000000     0.692400000000     0.792100000000     0          
H94      H      0.360000000000     0.718300000000     0.807000000000     0          
C95      C      0.380600000000     0.662690000000     0.834000000000     0          
H96      H      0.411500000000     0.668100000000     0.876400000000     0          
O97      O      0.061900000000     0.897180000000     0.913700000000     0          
O98      O      0.115900000000     0.941730000000     0.839700000000     0          
C99      C      0.101600000000     0.907280000000     0.858400000000     0          
C100     C      0.178000000000     0.881730000000     0.751000000000     0          
H101     H      0.188100000000     0.907600000000     0.736000000000     0          
C102     C      0.225700000000     0.780600000000     0.594200000000     0          
H103     H      0.208700000000     0.801900000000     0.563300000000     0          
C104     C      0.134400000000     0.875390000000     0.813200000000     0          
C105     C      0.225400000000     0.781200000000     0.685600000000     0          
C106     C      0.208100000000     0.851720000000     0.708800000000     0          
H107     H      0.238300000000     0.857000000000     0.665400000000     0          
C108     C      0.193500000000     0.813880000000     0.731000000000     0          
C109     C      0.150000000000     0.807600000000     0.792100000000     0          
H110     H      0.140000000000     0.781700000000     0.807000000000     0          
C111     C      0.119400000000     0.837310000000     0.834000000000     0          
H112     H      0.088500000000     0.831900000000     0.876400000000     0          
O113     O      0.561900000000     0.397180000000     0.913700000000     0          
O114     O      0.615900000000     0.441730000000     0.839700000000     0          
C115     C      0.601600000000     0.407280000000     0.858400000000     0          
C116     C      0.678000000000     0.381730000000     0.751000000000     0          
H117     H      0.688100000000     0.407600000000     0.736000000000     0          
C118     C      0.725700000000     0.280600000000     0.594200000000     0          
H119     H      0.708700000000     0.301900000000     0.563300000000     0          
C120     C      0.634400000000     0.375390000000     0.813200000000     0          
C121     C      0.725400000000     0.281200000000     0.685600000000     0          
C122     C      0.708100000000     0.351720000000     0.708800000000     0          
H123     H      0.738300000000     0.357000000000     0.665400000000     0          
C124     C      0.693500000000     0.313880000000     0.731000000000     0          
C125     C      0.650000000000     0.307600000000     0.792100000000     0          
H126     H      0.640000000000     0.281700000000     0.807000000000     0          
C127     C      0.619400000000     0.337310000000     0.834000000000     0          
H128     H      0.588500000000     0.331900000000     0.876400000000     0          
O129     O      0.938100000000     0.897180000000     0.913700000000     0          
O130     O      0.884100000000     0.941730000000     0.839700000000     0          
C131     C      0.898400000000     0.907280000000     0.858400000000     0          
C132     C      0.822000000000     0.881730000000     0.751000000000     0          
H133     H      0.811900000000     0.907600000000     0.736000000000     0          
C134     C      0.774300000000     0.780600000000     0.594200000000     0          
H135     H      0.791300000000     0.801900000000     0.563300000000     0          
C136     C      0.865600000000     0.875390000000     0.813200000000     0          
C137     C      0.774600000000     0.781200000000     0.685600000000     0          
C138     C      0.791900000000     0.851720000000     0.708800000000     0          
H139     H      0.761700000000     0.857000000000     0.665400000000     0          
C140     C      0.806500000000     0.813880000000     0.731000000000     0          
C141     C      0.850000000000     0.807600000000     0.792100000000     0          
H142     H      0.860000000000     0.781700000000     0.807000000000     0          
C143     C      0.880600000000     0.837310000000     0.834000000000     0          
H144     H      0.911500000000     0.831900000000     0.876400000000     0          
O145     O      0.438100000000     0.397180000000     0.913700000000     0          
O146     O      0.384100000000     0.441730000000     0.839700000000     0          
C147     C      0.398400000000     0.407280000000     0.858400000000     0          
C148     C      0.322000000000     0.381730000000     0.751000000000     0          
H149     H      0.311900000000     0.407600000000     0.736000000000     0          
C150     C      0.274300000000     0.280600000000     0.594200000000     0          
H151     H      0.291300000000     0.301900000000     0.563300000000     0          
C152     C      0.365600000000     0.375390000000     0.813200000000     0          
C153     C      0.274600000000     0.281200000000     0.685600000000     0          
C154     C      0.291900000000     0.351720000000     0.708800000000     0          
H155     H      0.261700000000     0.357000000000     0.665400000000     0          
C156     C      0.306500000000     0.313880000000     0.731000000000     0          
C157     C      0.350000000000     0.307600000000     0.792100000000     0          
H158     H      0.360000000000     0.281700000000     0.807000000000     0          
C159     C      0.380600000000     0.337310000000     0.834000000000     0          
H160     H      0.411500000000     0.331900000000     0.876400000000     0          
O161     O      0.061900000000     0.102820000000     0.913700000000     0          
O162     O      0.115900000000     0.058270000000     0.839700000000     0          
C163     C      0.101600000000     0.092720000000     0.858400000000     0          
C164     C      0.178000000000     0.118270000000     0.751000000000     0          
H165     H      0.188100000000     0.092400000000     0.736000000000     0          
C166     C      0.225700000000     0.219400000000     0.594200000000     0          
H167     H      0.208700000000     0.198100000000     0.563300000000     0          
C168     C      0.134400000000     0.124610000000     0.813200000000     0          
C169     C      0.225400000000     0.218800000000     0.685600000000     0          
C170     C      0.208100000000     0.148280000000     0.708800000000     0          
H171     H      0.238300000000     0.143000000000     0.665400000000     0          
C172     C      0.193500000000     0.186120000000     0.731000000000     0          
C173     C      0.150000000000     0.192400000000     0.792100000000     0          
H174     H      0.140000000000     0.218300000000     0.807000000000     0          
C175     C      0.119400000000     0.162690000000     0.834000000000     0          
H176     H      0.088500000000     0.168100000000     0.876400000000     0          
O177     O      0.561900000000     0.602820000000     0.913700000000     0          
O178     O      0.615900000000     0.558270000000     0.839700000000     0          
C179     C      0.601600000000     0.592720000000     0.858400000000     0          
C180     C      0.678000000000     0.618270000000     0.751000000000     0          
H181     H      0.688100000000     0.592400000000     0.736000000000     0          
C182     C      0.725700000000     0.719400000000     0.594200000000     0          
H183     H      0.708700000000     0.698100000000     0.563300000000     0          
C184     C      0.634400000000     0.624610000000     0.813200000000     0          
C185     C      0.725400000000     0.718800000000     0.685600000000     0          
C186     C      0.708100000000     0.648280000000     0.708800000000     0          
H187     H      0.738300000000     0.643000000000     0.665400000000     0          
C188     C      0.693500000000     0.686120000000     0.731000000000     0          
C189     C      0.650000000000     0.692400000000     0.792100000000     0          
H190     H      0.640000000000     0.718300000000     0.807000000000     0          
C191     C      0.619400000000     0.662690000000     0.834000000000     0          
H192     H      0.588500000000     0.668100000000     0.876400000000     0          
O193     O      0.061900000000     0.897180000000     0.086300000000     0          
O194     O      0.115900000000     0.941730000000     0.160300000000     0          
C195     C      0.101600000000     0.907280000000     0.141600000000     0          
C196     C      0.178000000000     0.881730000000     0.249000000000     0          
H197     H      0.188100000000     0.907600000000     0.264000000000     0          
C198     C      0.225700000000     0.780600000000     0.405800000000     0          
H199     H      0.208700000000     0.801900000000     0.436700000000     0          
C200     C      0.134400000000     0.875390000000     0.186800000000     0          
C201     C      0.225400000000     0.781200000000     0.314400000000     0          
C202     C      0.208100000000     0.851720000000     0.291200000000     0          
H203     H      0.238300000000     0.857000000000     0.334600000000     0          
C204     C      0.193500000000     0.813880000000     0.269000000000     0          
C205     C      0.150000000000     0.807600000000     0.207900000000     0          
H206     H      0.140000000000     0.781700000000     0.193000000000     0          
C207     C      0.119400000000     0.837310000000     0.166000000000     0          
H208     H      0.088500000000     0.831900000000     0.123600000000     0          
O209     O      0.561900000000     0.397180000000     0.086300000000     0          
O210     O      0.615900000000     0.441730000000     0.160300000000     0          
C211     C      0.601600000000     0.407280000000     0.141600000000     0          
C212     C      0.678000000000     0.381730000000     0.249000000000     0          
H213     H      0.688100000000     0.407600000000     0.264000000000     0          
C214     C      0.725700000000     0.280600000000     0.405800000000     0          
H215     H      0.708700000000     0.301900000000     0.436700000000     0          
C216     C      0.634400000000     0.375390000000     0.186800000000     0          
C217     C      0.725400000000     0.281200000000     0.314400000000     0          
C218     C      0.708100000000     0.351720000000     0.291200000000     0          
H219     H      0.738300000000     0.357000000000     0.334600000000     0          
C220     C      0.693500000000     0.313880000000     0.269000000000     0          
C221     C      0.650000000000     0.307600000000     0.207900000000     0          
H222     H      0.640000000000     0.281700000000     0.193000000000     0          
C223     C      0.619400000000     0.337310000000     0.166000000000     0          
H224     H      0.588500000000     0.331900000000     0.123600000000     0          
O225     O      0.938100000000     0.102820000000     0.086300000000     0          
O226     O      0.884100000000     0.058270000000     0.160300000000     0          
C227     C      0.898400000000     0.092720000000     0.141600000000     0          
C228     C      0.822000000000     0.118270000000     0.249000000000     0          
H229     H      0.811900000000     0.092400000000     0.264000000000     0          
C230     C      0.774300000000     0.219400000000     0.405800000000     0          
H231     H      0.791300000000     0.198100000000     0.436700000000     0          
C232     C      0.865600000000     0.124610000000     0.186800000000     0          
C233     C      0.774600000000     0.218800000000     0.314400000000     0          
C234     C      0.791900000000     0.148280000000     0.291200000000     0          
H235     H      0.761700000000     0.143000000000     0.334600000000     0          
C236     C      0.806500000000     0.186120000000     0.269000000000     0          
C237     C      0.850000000000     0.192400000000     0.207900000000     0          
H238     H      0.860000000000     0.218300000000     0.193000000000     0          
C239     C      0.880600000000     0.162690000000     0.166000000000     0          
H240     H      0.911500000000     0.168100000000     0.123600000000     0          
O241     O      0.438100000000     0.602820000000     0.086300000000     0          
O242     O      0.384100000000     0.558270000000     0.160300000000     0          
C243     C      0.398400000000     0.592720000000     0.141600000000     0          
C244     C      0.322000000000     0.618270000000     0.249000000000     0          
H245     H      0.311900000000     0.592400000000     0.264000000000     0          
C246     C      0.274300000000     0.719400000000     0.405800000000     0          
H247     H      0.291300000000     0.698100000000     0.436700000000     0          
C248     C      0.365600000000     0.624610000000     0.186800000000     0          
C249     C      0.274600000000     0.718800000000     0.314400000000     0          
C250     C      0.291900000000     0.648280000000     0.291200000000     0          
H251     H      0.261700000000     0.643000000000     0.334600000000     0          
C252     C      0.306500000000     0.686120000000     0.269000000000     0          
C253     C      0.350000000000     0.692400000000     0.207900000000     0          
H254     H      0.360000000000     0.718300000000     0.193000000000     0          
C255     C      0.380600000000     0.662690000000     0.166000000000     0          
H256     H      0.411500000000     0.668100000000     0.123600000000     0          
Zr257    Zr     0.000000000000     0.070590000000     0.000000000000     0          
Zr258    Zr     0.500000000000     0.570590000000     0.000000000000     0          
Zr259    Zr     0.000000000000     0.929410000000     0.000000000000     0          
Zr260    Zr     0.500000000000     0.429410000000     0.000000000000     0          
Zr261    Zr     0.082550000000     0.000000000000     0.113980000000     0          
O262     O      0.181300000000     0.000000000000     0.095800000000     0          
C263     C      0.373800000000     0.000000000000     0.079100000000     0          
C264     C      0.309100000000     0.000000000000     0.078700000000     0          
Zr265    Zr     0.582550000000     0.500000000000     0.113980000000     0          
O266     O      0.681300000000     0.500000000000     0.095800000000     0          
C267     C      0.873800000000     0.500000000000     0.079100000000     0          
C268     C      0.809100000000     0.500000000000     0.078700000000     0          
Zr269    Zr     0.917450000000     0.000000000000     0.113980000000     0          
O270     O      0.818700000000     0.000000000000     0.095800000000     0          
C271     C      0.626200000000     0.000000000000     0.079100000000     0          
C272     C      0.690900000000     0.000000000000     0.078700000000     0          
Zr273    Zr     0.417450000000     0.500000000000     0.113980000000     0          
O274     O      0.318700000000     0.500000000000     0.095800000000     0          
C275     C      0.126200000000     0.500000000000     0.079100000000     0          
C276     C      0.190900000000     0.500000000000     0.078700000000     0          
Zr277    Zr     0.917450000000     0.000000000000     0.886020000000     0          
O278     O      0.818700000000     0.000000000000     0.904200000000     0          
C279     C      0.626200000000     0.000000000000     0.920900000000     0          
C280     C      0.690900000000     0.000000000000     0.921300000000     0          
Zr281    Zr     0.417450000000     0.500000000000     0.886020000000     0          
O282     O      0.318700000000     0.500000000000     0.904200000000     0          
C283     C      0.126200000000     0.500000000000     0.920900000000     0          
C284     C      0.190900000000     0.500000000000     0.921300000000     0          
Zr285    Zr     0.082550000000     0.000000000000     0.886020000000     0          
O286     O      0.181300000000     0.000000000000     0.904200000000     0          
C287     C      0.373800000000     0.000000000000     0.920900000000     0          
C288     C      0.309100000000     0.000000000000     0.921300000000     0          
Zr289    Zr     0.582550000000     0.500000000000     0.886020000000     0          
O290     O      0.681300000000     0.500000000000     0.904200000000     0          
C291     C      0.873800000000     0.500000000000     0.920900000000     0          
C292     C      0.809100000000     0.500000000000     0.921300000000     0          
O293     O      0.081500000000     0.034500000000     0.000000000000     0          
O294     O      0.581500000000     0.534500000000     0.000000000000     0          
O295     O      0.918500000000     0.965500000000     0.000000000000     0          
O296     O      0.418500000000     0.465500000000     0.000000000000     0          
O297     O      0.918500000000     0.034500000000     0.000000000000     0          
O298     O      0.418500000000     0.534500000000     0.000000000000     0          
O299     O      0.081500000000     0.965500000000     0.000000000000     0          
O300     O      0.581500000000     0.465500000000     0.000000000000     0          
O301     O      0.000000000000     0.034030000000     0.115300000000     0          
O302     O      0.500000000000     0.534030000000     0.115300000000     0          
O303     O      0.000000000000     0.965970000000     0.115300000000     0          
O304     O      0.500000000000     0.465970000000     0.115300000000     0          
O305     O      0.000000000000     0.034030000000     0.884700000000     0          
O306     O      0.500000000000     0.534030000000     0.884700000000     0          
O307     O      0.000000000000     0.965970000000     0.884700000000     0          
O308     O      0.500000000000     0.465970000000     0.884700000000     0          
C309     C      0.250000000000     0.250000000000     0.450900000000     0          
O310     O      0.250000000000     0.250000000000     0.183500000000     0          
C311     C      0.250000000000     0.250000000000     0.270000000000     0          
C312     C      0.750000000000     0.750000000000     0.450900000000     0          
O313     O      0.750000000000     0.750000000000     0.183500000000     0          
C314     C      0.750000000000     0.750000000000     0.270000000000     0          
C315     C      0.750000000000     0.250000000000     0.549100000000     0          
O316     O      0.750000000000     0.250000000000     0.816500000000     0          
C317     C      0.750000000000     0.250000000000     0.730000000000     0          
C318     C      0.250000000000     0.750000000000     0.549100000000     0          
O319     O      0.250000000000     0.750000000000     0.816500000000     0          
C320     C      0.250000000000     0.750000000000     0.730000000000     0          
C321     C      0.750000000000     0.750000000000     0.549100000000     0          
O322     O      0.750000000000     0.750000000000     0.816500000000     0          
C323     C      0.750000000000     0.750000000000     0.730000000000     0          
C324     C      0.250000000000     0.250000000000     0.549100000000     0          
O325     O      0.250000000000     0.250000000000     0.816500000000     0          
C326     C      0.250000000000     0.250000000000     0.730000000000     0          
C327     C      0.250000000000     0.750000000000     0.450900000000     0          
O328     O      0.250000000000     0.750000000000     0.183500000000     0          
C329     C      0.250000000000     0.750000000000     0.270000000000     0          
C330     C      0.750000000000     0.250000000000     0.450900000000     0          
O331     O      0.750000000000     0.250000000000     0.183500000000     0          
C332     C      0.750000000000     0.250000000000     0.270000000000     0          
C333     C      0.277100000000     0.000000000000     0.000000000000     0          
C334     C      0.205700000000     0.000000000000     0.000000000000     0          
C335     C      0.407100000000     0.000000000000     0.000000000000     0          
C336     C      0.473300000000     0.000000000000     0.000000000000     0          
C337     C      0.777100000000     0.500000000000     0.000000000000     0          
C338     C      0.705700000000     0.500000000000     0.000000000000     0          
C339     C      0.907100000000     0.500000000000     0.000000000000     0          
C340     C      0.973300000000     0.500000000000     0.000000000000     0          
C341     C      0.722900000000     0.000000000000     0.000000000000     0          
C342     C      0.794300000000     0.000000000000     0.000000000000     0          
C343     C      0.592900000000     0.000000000000     0.000000000000     0          
C344     C      0.526700000000     0.000000000000     0.000000000000     0          
C345     C      0.222900000000     0.500000000000     0.000000000000     0          
C346     C      0.294300000000     0.500000000000     0.000000000000     0          
C347     C      0.092900000000     0.500000000000     0.000000000000     0          
C348     C      0.026700000000     0.500000000000     0.000000000000     0          
H349     H      0.599870000000     0.000000000000     0.856750000000     0          
H350     H      0.717640000000     0.000000000000     0.857480000000     0          
H351     H      0.400130000000     0.000000000000     0.856750000000     0          
H352     H      0.282360000000     0.000000000000     0.857480000000     0          
H353     H      0.400130000000     0.000000000000     0.143250000000     0          
H354     H      0.282360000000     0.000000000000     0.142520000000     0          
H355     H      0.599870000000     0.000000000000     0.143250000000     0          
H356     H      0.717640000000     0.000000000000     0.142520000000     0          
H357     H      0.099870000000     0.500000000000     0.856750000000     0          
H358     H      0.217640000000     0.500000000000     0.857480000000     0          
H359     H      0.900130000000     0.500000000000     0.856750000000     0          
H360     H      0.782360000000     0.500000000000     0.857480000000     0          
H361     H      0.900130000000     0.500000000000     0.143250000000     0          
H362     H      0.782360000000     0.500000000000     0.142520000000     0          
H363     H      0.099870000000     0.500000000000     0.143250000000     0          
H364     H      0.217640000000     0.500000000000     0.142520000000     0          
H365     H      0.250000000000     0.719730000000     0.840480000000     0          
H366     H      0.250000000000     0.780270000000     0.159520000000     0          
H367     H      0.750000000000     0.219730000000     0.840480000000     0          
H368     H      0.750000000000     0.280270000000     0.159520000000     0          
H369     H      0.250000000000     0.280270000000     0.159520000000     0          
H370     H      0.750000000000     0.780270000000     0.159520000000     0          
H371     H      0.750000000000     0.719730000000     0.840480000000     0          
H372     H      0.250000000000     0.219730000000     0.840480000000     0          


