data_HIXDAW

_audit_creation_method RASPA-1.0
_audit_creation_date 2020-11-2
_audit_author_name 'Rocio Bueno-Perez'

_cell_length_a    21.5531
_cell_length_b    34.7752
_cell_length_c    15.217
_cell_angle_alpha 90
_cell_angle_beta  90
_cell_angle_gamma 90
_cell_volume      11405.3

_symmetry_cell_setting          triclinic
_symmetry_space_group_name_Hall 'P 1'
_symmetry_space_group_name_H-M  'P 1'
_symmetry_Int_Tables_number     1

_symmetry_equiv_pos_as_xyz 'x,y,z'

loop_
_atom_site_label
_atom_site_type_symbol
_atom_site_fract_x
_atom_site_fract_y
_atom_site_fract_z
_atom_site_charge
O1       O      0.116700000000     0.058130000000     0.338100000000     0          
O2       O      0.061290000000     0.101940000000     0.412700000000     0          
C3       C      0.103400000000     0.092200000000     0.356900000000     0          
C4       C      0.135500000000     0.124000000000     0.313700000000     0          
C5       C      0.180200000000     0.118000000000     0.248800000000     0          
H6       H      0.190000000000     0.092600000000     0.230900000000     0          
C7       C      0.210000000000     0.148500000000     0.210600000000     0          
H8       H      0.241400000000     0.143900000000     0.168200000000     0          
C9       C      0.195200000000     0.185700000000     0.232600000000     0          
C10      C      0.150600000000     0.192100000000     0.297200000000     0          
H11      H      0.140900000000     0.217700000000     0.314500000000     0          
C12      C      0.120400000000     0.161400000000     0.336200000000     0          
H13      H      0.089100000000     0.166100000000     0.378800000000     0          
C14      C      0.225600000000     0.219200000000     0.187400000000     0          
C15      C      0.225500000000     0.219700000000     0.097300000000     0          
H16      H      0.208000000000     0.198500000000     0.066300000000     0          
O17      O      0.616700000000     0.558130000000     0.338100000000     0          
O18      O      0.561290000000     0.601940000000     0.412700000000     0          
C19      C      0.603400000000     0.592200000000     0.356900000000     0          
C20      C      0.635500000000     0.624000000000     0.313700000000     0          
C21      C      0.680200000000     0.618000000000     0.248800000000     0          
H22      H      0.690000000000     0.592600000000     0.230900000000     0          
C23      C      0.710000000000     0.648500000000     0.210600000000     0          
H24      H      0.741400000000     0.643900000000     0.168200000000     0          
C25      C      0.695200000000     0.685700000000     0.232600000000     0          
C26      C      0.650600000000     0.692100000000     0.297200000000     0          
H27      H      0.640900000000     0.717700000000     0.314500000000     0          
C28      C      0.620400000000     0.661400000000     0.336200000000     0          
H29      H      0.589100000000     0.666100000000     0.378800000000     0          
C30      C      0.725600000000     0.719200000000     0.187400000000     0          
C31      C      0.725500000000     0.719700000000     0.097300000000     0          
H32      H      0.708000000000     0.698500000000     0.066300000000     0          
C33      C      0.794500000000     0.720400000000     0.362100000000     0          
H34      H      0.790300000000     0.720300000000     0.426200000000     0          
H35      H      0.837300000000     0.727100000000     0.346300000000     0          
H36      H      0.784600000000     0.694800000000     0.338900000000     0          
O37      O      0.883300000000     0.941870000000     0.338100000000     0          
O38      O      0.938710000000     0.898060000000     0.412700000000     0          
C39      C      0.896600000000     0.907800000000     0.356900000000     0          
C40      C      0.864500000000     0.876000000000     0.313700000000     0          
C41      C      0.819800000000     0.882000000000     0.248800000000     0          
H42      H      0.810000000000     0.907400000000     0.230900000000     0          
C43      C      0.790000000000     0.851500000000     0.210600000000     0          
H44      H      0.758600000000     0.856100000000     0.168200000000     0          
C45      C      0.804800000000     0.814300000000     0.232600000000     0          
C46      C      0.849400000000     0.807900000000     0.297200000000     0          
H47      H      0.859100000000     0.782300000000     0.314500000000     0          
C48      C      0.879600000000     0.838600000000     0.336200000000     0          
H49      H      0.910900000000     0.833900000000     0.378800000000     0          
C50      C      0.774400000000     0.780800000000     0.187400000000     0          
C51      C      0.774500000000     0.780300000000     0.097300000000     0          
H52      H      0.792000000000     0.801500000000     0.066300000000     0          
O53      O      0.383300000000     0.441870000000     0.338100000000     0          
O54      O      0.438710000000     0.398060000000     0.412700000000     0          
C55      C      0.396600000000     0.407800000000     0.356900000000     0          
C56      C      0.364500000000     0.376000000000     0.313700000000     0          
C57      C      0.319800000000     0.382000000000     0.248800000000     0          
H58      H      0.310000000000     0.407400000000     0.230900000000     0          
C59      C      0.290000000000     0.351500000000     0.210600000000     0          
H60      H      0.258600000000     0.356100000000     0.168200000000     0          
C61      C      0.304800000000     0.314300000000     0.232600000000     0          
C62      C      0.349400000000     0.307900000000     0.297200000000     0          
H63      H      0.359100000000     0.282300000000     0.314500000000     0          
C64      C      0.379600000000     0.338600000000     0.336200000000     0          
H65      H      0.410900000000     0.333900000000     0.378800000000     0          
C66      C      0.274400000000     0.280800000000     0.187400000000     0          
C67      C      0.274500000000     0.280300000000     0.097300000000     0          
H68      H      0.292000000000     0.301500000000     0.066300000000     0          
C69      C      0.205500000000     0.279600000000     0.362100000000     0          
H70      H      0.209700000000     0.279700000000     0.426200000000     0          
H71      H      0.162700000000     0.272900000000     0.346300000000     0          
H72      H      0.215400000000     0.305200000000     0.338900000000     0          
O73      O      0.883300000000     0.058130000000     0.661900000000     0          
O74      O      0.938710000000     0.101940000000     0.587300000000     0          
C75      C      0.896600000000     0.092200000000     0.643100000000     0          
C76      C      0.864500000000     0.124000000000     0.686300000000     0          
C77      C      0.819800000000     0.118000000000     0.751200000000     0          
H78      H      0.810000000000     0.092600000000     0.769100000000     0          
C79      C      0.790000000000     0.148500000000     0.789400000000     0          
H80      H      0.758600000000     0.143900000000     0.831800000000     0          
C81      C      0.804800000000     0.185700000000     0.767400000000     0          
C82      C      0.849400000000     0.192100000000     0.702800000000     0          
H83      H      0.859100000000     0.217700000000     0.685500000000     0          
C84      C      0.879600000000     0.161400000000     0.663800000000     0          
H85      H      0.910900000000     0.166100000000     0.621200000000     0          
C86      C      0.774400000000     0.219200000000     0.812600000000     0          
C87      C      0.774500000000     0.219700000000     0.902700000000     0          
H88      H      0.792000000000     0.198500000000     0.933700000000     0          
C89      C      0.705500000000     0.220400000000     0.637900000000     0          
H90      H      0.709700000000     0.220300000000     0.573800000000     0          
H91      H      0.662700000000     0.227100000000     0.653700000000     0          
H92      H      0.715400000000     0.194800000000     0.661100000000     0          
O93      O      0.383300000000     0.558130000000     0.661900000000     0          
O94      O      0.438710000000     0.601940000000     0.587300000000     0          
C95      C      0.396600000000     0.592200000000     0.643100000000     0          
C96      C      0.364500000000     0.624000000000     0.686300000000     0          
C97      C      0.319800000000     0.618000000000     0.751200000000     0          
H98      H      0.310000000000     0.592600000000     0.769100000000     0          
C99      C      0.290000000000     0.648500000000     0.789400000000     0          
H100     H      0.258600000000     0.643900000000     0.831800000000     0          
C101     C      0.304800000000     0.685700000000     0.767400000000     0          
C102     C      0.349400000000     0.692100000000     0.702800000000     0          
H103     H      0.359100000000     0.717700000000     0.685500000000     0          
C104     C      0.379600000000     0.661400000000     0.663800000000     0          
H105     H      0.410900000000     0.666100000000     0.621200000000     0          
C106     C      0.274400000000     0.719200000000     0.812600000000     0          
C107     C      0.274500000000     0.719700000000     0.902700000000     0          
H108     H      0.292000000000     0.698500000000     0.933700000000     0          
O109     O      0.116700000000     0.941870000000     0.661900000000     0          
O110     O      0.061290000000     0.898060000000     0.587300000000     0          
C111     C      0.103400000000     0.907800000000     0.643100000000     0          
C112     C      0.135500000000     0.876000000000     0.686300000000     0          
C113     C      0.180200000000     0.882000000000     0.751200000000     0          
H114     H      0.190000000000     0.907400000000     0.769100000000     0          
C115     C      0.210000000000     0.851500000000     0.789400000000     0          
H116     H      0.241400000000     0.856100000000     0.831800000000     0          
C117     C      0.195200000000     0.814300000000     0.767400000000     0          
C118     C      0.150600000000     0.807900000000     0.702800000000     0          
H119     H      0.140900000000     0.782300000000     0.685500000000     0          
C120     C      0.120400000000     0.838600000000     0.663800000000     0          
H121     H      0.089100000000     0.833900000000     0.621200000000     0          
C122     C      0.225600000000     0.780800000000     0.812600000000     0          
C123     C      0.225500000000     0.780300000000     0.902700000000     0          
H124     H      0.208000000000     0.801500000000     0.933700000000     0          
C125     C      0.294500000000     0.779600000000     0.637900000000     0          
H126     H      0.290300000000     0.779700000000     0.573800000000     0          
H127     H      0.337300000000     0.772900000000     0.653700000000     0          
H128     H      0.284600000000     0.805200000000     0.661100000000     0          
O129     O      0.616700000000     0.441870000000     0.661900000000     0          
O130     O      0.561290000000     0.398060000000     0.587300000000     0          
C131     C      0.603400000000     0.407800000000     0.643100000000     0          
C132     C      0.635500000000     0.376000000000     0.686300000000     0          
C133     C      0.680200000000     0.382000000000     0.751200000000     0          
H134     H      0.690000000000     0.407400000000     0.769100000000     0          
C135     C      0.710000000000     0.351500000000     0.789400000000     0          
H136     H      0.741400000000     0.356100000000     0.831800000000     0          
C137     C      0.695200000000     0.314300000000     0.767400000000     0          
C138     C      0.650600000000     0.307900000000     0.702800000000     0          
H139     H      0.640900000000     0.282300000000     0.685500000000     0          
C140     C      0.620400000000     0.338600000000     0.663800000000     0          
H141     H      0.589100000000     0.333900000000     0.621200000000     0          
C142     C      0.725600000000     0.280800000000     0.812600000000     0          
C143     C      0.725500000000     0.280300000000     0.902700000000     0          
H144     H      0.708000000000     0.301500000000     0.933700000000     0          
O145     O      0.883300000000     0.941870000000     0.661900000000     0          
O146     O      0.938710000000     0.898060000000     0.587300000000     0          
C147     C      0.896600000000     0.907800000000     0.643100000000     0          
C148     C      0.864500000000     0.876000000000     0.686300000000     0          
C149     C      0.819800000000     0.882000000000     0.751200000000     0          
H150     H      0.810000000000     0.907400000000     0.769100000000     0          
C151     C      0.790000000000     0.851500000000     0.789400000000     0          
H152     H      0.758600000000     0.856100000000     0.831800000000     0          
C153     C      0.804800000000     0.814300000000     0.767400000000     0          
C154     C      0.849400000000     0.807900000000     0.702800000000     0          
H155     H      0.859100000000     0.782300000000     0.685500000000     0          
C156     C      0.879600000000     0.838600000000     0.663800000000     0          
H157     H      0.910900000000     0.833900000000     0.621200000000     0          
C158     C      0.774400000000     0.780800000000     0.812600000000     0          
C159     C      0.774500000000     0.780300000000     0.902700000000     0          
H160     H      0.792000000000     0.801500000000     0.933700000000     0          
O161     O      0.383300000000     0.441870000000     0.661900000000     0          
O162     O      0.438710000000     0.398060000000     0.587300000000     0          
C163     C      0.396600000000     0.407800000000     0.643100000000     0          
C164     C      0.364500000000     0.376000000000     0.686300000000     0          
C165     C      0.319800000000     0.382000000000     0.751200000000     0          
H166     H      0.310000000000     0.407400000000     0.769100000000     0          
C167     C      0.290000000000     0.351500000000     0.789400000000     0          
H168     H      0.258600000000     0.356100000000     0.831800000000     0          
C169     C      0.304800000000     0.314300000000     0.767400000000     0          
C170     C      0.349400000000     0.307900000000     0.702800000000     0          
H171     H      0.359100000000     0.282300000000     0.685500000000     0          
C172     C      0.379600000000     0.338600000000     0.663800000000     0          
H173     H      0.410900000000     0.333900000000     0.621200000000     0          
C174     C      0.274400000000     0.280800000000     0.812600000000     0          
C175     C      0.274500000000     0.280300000000     0.902700000000     0          
H176     H      0.292000000000     0.301500000000     0.933700000000     0          
O177     O      0.116700000000     0.058130000000     0.661900000000     0          
O178     O      0.061290000000     0.101940000000     0.587300000000     0          
C179     C      0.103400000000     0.092200000000     0.643100000000     0          
C180     C      0.135500000000     0.124000000000     0.686300000000     0          
C181     C      0.180200000000     0.118000000000     0.751200000000     0          
H182     H      0.190000000000     0.092600000000     0.769100000000     0          
C183     C      0.210000000000     0.148500000000     0.789400000000     0          
H184     H      0.241400000000     0.143900000000     0.831800000000     0          
C185     C      0.195200000000     0.185700000000     0.767400000000     0          
C186     C      0.150600000000     0.192100000000     0.702800000000     0          
H187     H      0.140900000000     0.217700000000     0.685500000000     0          
C188     C      0.120400000000     0.161400000000     0.663800000000     0          
H189     H      0.089100000000     0.166100000000     0.621200000000     0          
C190     C      0.225600000000     0.219200000000     0.812600000000     0          
C191     C      0.225500000000     0.219700000000     0.902700000000     0          
H192     H      0.208000000000     0.198500000000     0.933700000000     0          
C193     C      0.294500000000     0.220400000000     0.637900000000     0          
H194     H      0.290300000000     0.220300000000     0.573800000000     0          
H195     H      0.337300000000     0.227100000000     0.653700000000     0          
H196     H      0.284600000000     0.194800000000     0.661100000000     0          
O197     O      0.616700000000     0.558130000000     0.661900000000     0          
O198     O      0.561290000000     0.601940000000     0.587300000000     0          
C199     C      0.603400000000     0.592200000000     0.643100000000     0          
C200     C      0.635500000000     0.624000000000     0.686300000000     0          
C201     C      0.680200000000     0.618000000000     0.751200000000     0          
H202     H      0.690000000000     0.592600000000     0.769100000000     0          
C203     C      0.710000000000     0.648500000000     0.789400000000     0          
H204     H      0.741400000000     0.643900000000     0.831800000000     0          
C205     C      0.695200000000     0.685700000000     0.767400000000     0          
C206     C      0.650600000000     0.692100000000     0.702800000000     0          
H207     H      0.640900000000     0.717700000000     0.685500000000     0          
C208     C      0.620400000000     0.661400000000     0.663800000000     0          
H209     H      0.589100000000     0.666100000000     0.621200000000     0          
C210     C      0.725600000000     0.719200000000     0.812600000000     0          
C211     C      0.725500000000     0.719700000000     0.902700000000     0          
H212     H      0.708000000000     0.698500000000     0.933700000000     0          
C213     C      0.794500000000     0.720400000000     0.637900000000     0          
H214     H      0.790300000000     0.720300000000     0.573800000000     0          
H215     H      0.837300000000     0.727100000000     0.653700000000     0          
H216     H      0.784600000000     0.694800000000     0.661100000000     0          
O217     O      0.116700000000     0.941870000000     0.338100000000     0          
O218     O      0.061290000000     0.898060000000     0.412700000000     0          
C219     C      0.103400000000     0.907800000000     0.356900000000     0          
C220     C      0.135500000000     0.876000000000     0.313700000000     0          
C221     C      0.180200000000     0.882000000000     0.248800000000     0          
H222     H      0.190000000000     0.907400000000     0.230900000000     0          
C223     C      0.210000000000     0.851500000000     0.210600000000     0          
H224     H      0.241400000000     0.856100000000     0.168200000000     0          
C225     C      0.195200000000     0.814300000000     0.232600000000     0          
C226     C      0.150600000000     0.807900000000     0.297200000000     0          
H227     H      0.140900000000     0.782300000000     0.314500000000     0          
C228     C      0.120400000000     0.838600000000     0.336200000000     0          
H229     H      0.089100000000     0.833900000000     0.378800000000     0          
C230     C      0.225600000000     0.780800000000     0.187400000000     0          
C231     C      0.225500000000     0.780300000000     0.097300000000     0          
H232     H      0.208000000000     0.801500000000     0.066300000000     0          
C233     C      0.294500000000     0.779600000000     0.362100000000     0          
H234     H      0.290300000000     0.779700000000     0.426200000000     0          
H235     H      0.337300000000     0.772900000000     0.346300000000     0          
H236     H      0.284600000000     0.805200000000     0.338900000000     0          
O237     O      0.616700000000     0.441870000000     0.338100000000     0          
O238     O      0.561290000000     0.398060000000     0.412700000000     0          
C239     C      0.603400000000     0.407800000000     0.356900000000     0          
C240     C      0.635500000000     0.376000000000     0.313700000000     0          
C241     C      0.680200000000     0.382000000000     0.248800000000     0          
H242     H      0.690000000000     0.407400000000     0.230900000000     0          
C243     C      0.710000000000     0.351500000000     0.210600000000     0          
H244     H      0.741400000000     0.356100000000     0.168200000000     0          
C245     C      0.695200000000     0.314300000000     0.232600000000     0          
C246     C      0.650600000000     0.307900000000     0.297200000000     0          
H247     H      0.640900000000     0.282300000000     0.314500000000     0          
C248     C      0.620400000000     0.338600000000     0.336200000000     0          
H249     H      0.589100000000     0.333900000000     0.378800000000     0          
C250     C      0.725600000000     0.280800000000     0.187400000000     0          
C251     C      0.725500000000     0.280300000000     0.097300000000     0          
H252     H      0.708000000000     0.301500000000     0.066300000000     0          
C253     C      0.794500000000     0.279600000000     0.362100000000     0          
H254     H      0.790300000000     0.279700000000     0.426200000000     0          
H255     H      0.837300000000     0.272900000000     0.346300000000     0          
H256     H      0.784600000000     0.305200000000     0.338900000000     0          
O257     O      0.883300000000     0.058130000000     0.338100000000     0          
O258     O      0.938710000000     0.101940000000     0.412700000000     0          
C259     C      0.896600000000     0.092200000000     0.356900000000     0          
C260     C      0.864500000000     0.124000000000     0.313700000000     0          
C261     C      0.819800000000     0.118000000000     0.248800000000     0          
H262     H      0.810000000000     0.092600000000     0.230900000000     0          
C263     C      0.790000000000     0.148500000000     0.210600000000     0          
H264     H      0.758600000000     0.143900000000     0.168200000000     0          
C265     C      0.804800000000     0.185700000000     0.232600000000     0          
C266     C      0.849400000000     0.192100000000     0.297200000000     0          
H267     H      0.859100000000     0.217700000000     0.314500000000     0          
C268     C      0.879600000000     0.161400000000     0.336200000000     0          
H269     H      0.910900000000     0.166100000000     0.378800000000     0          
C270     C      0.774400000000     0.219200000000     0.187400000000     0          
C271     C      0.774500000000     0.219700000000     0.097300000000     0          
H272     H      0.792000000000     0.198500000000     0.066300000000     0          
O273     O      0.383300000000     0.558130000000     0.338100000000     0          
O274     O      0.438710000000     0.601940000000     0.412700000000     0          
C275     C      0.396600000000     0.592200000000     0.356900000000     0          
C276     C      0.364500000000     0.624000000000     0.313700000000     0          
C277     C      0.319800000000     0.618000000000     0.248800000000     0          
H278     H      0.310000000000     0.592600000000     0.230900000000     0          
C279     C      0.290000000000     0.648500000000     0.210600000000     0          
H280     H      0.258600000000     0.643900000000     0.168200000000     0          
C281     C      0.304800000000     0.685700000000     0.232600000000     0          
C282     C      0.349400000000     0.692100000000     0.297200000000     0          
H283     H      0.359100000000     0.717700000000     0.314500000000     0          
C284     C      0.379600000000     0.661400000000     0.336200000000     0          
H285     H      0.410900000000     0.666100000000     0.378800000000     0          
C286     C      0.274400000000     0.719200000000     0.187400000000     0          
C287     C      0.274500000000     0.719700000000     0.097300000000     0          
H288     H      0.292000000000     0.698500000000     0.066300000000     0          
Zr289    Zr     0.000000000000     0.069960000000     0.500000000000     0          
Zr290    Zr     0.500000000000     0.569960000000     0.500000000000     0          
Zr291    Zr     0.000000000000     0.930040000000     0.500000000000     0          
Zr292    Zr     0.500000000000     0.430040000000     0.500000000000     0          
Zr293    Zr     0.082500000000     0.000000000000     0.384610000000     0          
O294     O      0.181300000000     0.000000000000     0.408300000000     0          
C295     C      0.305000000000     0.000000000000     0.403800000000     0          
C296     C      0.378000000000     0.000000000000     0.409400000000     0          
H297     H      0.403400000000     0.000000000000     0.358300000000     0          
Zr298    Zr     0.582500000000     0.500000000000     0.384610000000     0          
O299     O      0.681300000000     0.500000000000     0.408300000000     0          
C300     C      0.805000000000     0.500000000000     0.403800000000     0          
C301     C      0.878000000000     0.500000000000     0.409400000000     0          
H302     H      0.903400000000     0.500000000000     0.358300000000     0          
Zr303    Zr     0.917500000000     0.000000000000     0.384610000000     0          
O304     O      0.818700000000     0.000000000000     0.408300000000     0          
C305     C      0.695000000000     0.000000000000     0.403800000000     0          
C306     C      0.622000000000     0.000000000000     0.409400000000     0          
H307     H      0.596600000000     0.000000000000     0.358300000000     0          
Zr308    Zr     0.417500000000     0.500000000000     0.384610000000     0          
O309     O      0.318700000000     0.500000000000     0.408300000000     0          
C310     C      0.195000000000     0.500000000000     0.403800000000     0          
C311     C      0.122000000000     0.500000000000     0.409400000000     0          
H312     H      0.096600000000     0.500000000000     0.358300000000     0          
Zr313    Zr     0.917500000000     0.000000000000     0.615390000000     0          
O314     O      0.818700000000     0.000000000000     0.591700000000     0          
C315     C      0.695000000000     0.000000000000     0.596200000000     0          
C316     C      0.622000000000     0.000000000000     0.590600000000     0          
H317     H      0.596600000000     0.000000000000     0.641700000000     0          
Zr318    Zr     0.417500000000     0.500000000000     0.615390000000     0          
O319     O      0.318700000000     0.500000000000     0.591700000000     0          
C320     C      0.195000000000     0.500000000000     0.596200000000     0          
C321     C      0.122000000000     0.500000000000     0.590600000000     0          
H322     H      0.096600000000     0.500000000000     0.641700000000     0          
Zr323    Zr     0.082500000000     0.000000000000     0.615390000000     0          
O324     O      0.181300000000     0.000000000000     0.591700000000     0          
C325     C      0.305000000000     0.000000000000     0.596200000000     0          
C326     C      0.378000000000     0.000000000000     0.590600000000     0          
H327     H      0.403400000000     0.000000000000     0.641700000000     0          
Zr328    Zr     0.582500000000     0.500000000000     0.615390000000     0          
O329     O      0.681300000000     0.500000000000     0.591700000000     0          
C330     C      0.805000000000     0.500000000000     0.596200000000     0          
C331     C      0.878000000000     0.500000000000     0.590600000000     0          
H332     H      0.903400000000     0.500000000000     0.641700000000     0          
O333     O      0.000000000000     0.033800000000     0.382900000000     0          
O334     O      0.500000000000     0.533800000000     0.382900000000     0          
O335     O      0.000000000000     0.966200000000     0.382900000000     0          
O336     O      0.500000000000     0.466200000000     0.382900000000     0          
O337     O      0.000000000000     0.033800000000     0.617100000000     0          
O338     O      0.500000000000     0.533800000000     0.617100000000     0          
O339     O      0.000000000000     0.966200000000     0.617100000000     0          
O340     O      0.500000000000     0.466200000000     0.617100000000     0          
O341     O      0.080300000000     0.034400000000     0.500000000000     0          
O342     O      0.580300000000     0.534400000000     0.500000000000     0          
O343     O      0.919700000000     0.965600000000     0.500000000000     0          
O344     O      0.419700000000     0.465600000000     0.500000000000     0          
O345     O      0.919700000000     0.034400000000     0.500000000000     0          
O346     O      0.419700000000     0.534400000000     0.500000000000     0          
O347     O      0.080300000000     0.965600000000     0.500000000000     0          
O348     O      0.580300000000     0.465600000000     0.500000000000     0          
O349     O      0.250000000000     0.250000000000     0.322800000000     0          
C350     C      0.250000000000     0.250000000000     0.050900000000     0          
C351     C      0.250000000000     0.250000000000     0.230600000000     0          
O352     O      0.750000000000     0.750000000000     0.322800000000     0          
C353     C      0.750000000000     0.750000000000     0.050900000000     0          
C354     C      0.750000000000     0.750000000000     0.230600000000     0          
O355     O      0.750000000000     0.250000000000     0.677200000000     0          
C356     C      0.750000000000     0.250000000000     0.949100000000     0          
C357     C      0.750000000000     0.250000000000     0.769400000000     0          
O358     O      0.250000000000     0.750000000000     0.677200000000     0          
C359     C      0.250000000000     0.750000000000     0.949100000000     0          
C360     C      0.250000000000     0.750000000000     0.769400000000     0          
O361     O      0.750000000000     0.750000000000     0.677200000000     0          
C362     C      0.750000000000     0.750000000000     0.949100000000     0          
C363     C      0.750000000000     0.750000000000     0.769400000000     0          
O364     O      0.250000000000     0.250000000000     0.677200000000     0          
C365     C      0.250000000000     0.250000000000     0.949100000000     0          
C366     C      0.250000000000     0.250000000000     0.769400000000     0          
O367     O      0.250000000000     0.750000000000     0.322800000000     0          
C368     C      0.250000000000     0.750000000000     0.050900000000     0          
C369     C      0.250000000000     0.750000000000     0.230600000000     0          
O370     O      0.750000000000     0.250000000000     0.322800000000     0          
C371     C      0.750000000000     0.250000000000     0.050900000000     0          
C372     C      0.750000000000     0.250000000000     0.230600000000     0          
C373     C      0.208000000000     0.000000000000     0.500000000000     0          
C374     C      0.276000000000     0.000000000000     0.500000000000     0          
C375     C      0.405100000000     0.000000000000     0.500000000000     0          
C376     C      0.471100000000     0.000000000000     0.500000000000     0          
C377     C      0.708000000000     0.500000000000     0.500000000000     0          
C378     C      0.776000000000     0.500000000000     0.500000000000     0          
C379     C      0.905100000000     0.500000000000     0.500000000000     0          
C380     C      0.971100000000     0.500000000000     0.500000000000     0          
C381     C      0.792000000000     0.000000000000     0.500000000000     0          
C382     C      0.724000000000     0.000000000000     0.500000000000     0          
C383     C      0.594900000000     0.000000000000     0.500000000000     0          
C384     C      0.528900000000     0.000000000000     0.500000000000     0          
C385     C      0.292000000000     0.500000000000     0.500000000000     0          
C386     C      0.224000000000     0.500000000000     0.500000000000     0          
C387     C      0.094900000000     0.500000000000     0.500000000000     0          
C388     C      0.028900000000     0.500000000000     0.500000000000     0          
H389     H      0.781070000000     0.500000000000     0.336990000000     0          
H390     H      0.781070000000     0.500000000000     0.663010000000     0          
H391     H      0.218930000000     0.500000000000     0.336990000000     0          
H392     H      0.218930000000     0.500000000000     0.663010000000     0          
H393     H      0.718930000000     0.000000000000     0.336990000000     0          
H394     H      0.718930000000     0.000000000000     0.663010000000     0          
H395     H      0.281070000000     0.000000000000     0.336990000000     0          
H396     H      0.281070000000     0.000000000000     0.663010000000     0          


