data_IFUDES

_audit_creation_method RASPA-1.0
_audit_creation_date 2020-1-15
_audit_author_name 'Rocio Bueno-Perez'

_cell_length_a    9.105
_cell_length_b    9.105
_cell_length_c    23.656
_cell_angle_alpha 90
_cell_angle_beta  90
_cell_angle_gamma 120
_cell_volume      1698.37

_symmetry_cell_setting          trigonal
_symmetry_space_group_name_Hall 'P 1'
_symmetry_space_group_name_H-M  'P 1'
_symmetry_Int_Tables_number     1

_symmetry_equiv_pos_as_xyz 'x,y,z'

loop_
_atom_site_label
_atom_site_type_symbol
_atom_site_fract_x
_atom_site_fract_y
_atom_site_fract_z
_atom_site_charge
Cd1      Cd     0.813310000000     0.186690000000     0.333400000000     0          
Zr1      Zr     0.851280000000     0.702570000000     0.166700000000     0          
O1       O      0.663700000000     0.475300000000     0.217290000000     0          
O2       O      0.633100000000     0.265400000000     0.274530000000     0          
O3       O      0.680700000000     0.961000000000     0.273510000000     0          
C1       C      0.717300000000     0.398700000000     0.248090000000     0          
C2       C      0.910900000000     0.486100000000     0.251480000000     0          
O4       O      0.989200000000     0.614900000000     0.219040000000     0          
O5       O      0.978800000000     0.431800000000     0.283810000000     0          
O6       O      0.073600000000     0.979500000000     0.445790000000     0          
O7       O      0.029400000000     0.128000000000     0.279070000000     0          
O8       O      0.212300000000     0.304500000000     0.455580000000     0          
C3       C      0.088200000000     0.238200000000     0.421870000000     0          
C4       C      0.999600000000     0.045300000000     0.417220000000     0          
O8C      O      0.695500000000     0.787700000000     0.211090000000     0          
O1D      O      0.811600000000     0.475300000000     0.116040000000     0          
O2C      O      0.734600000000     0.366900000000     0.392140000000     0          
O3C      O      0.039000000000     0.319300000000     0.393160000000     0          
Zr1A     Zr     0.297430000000     0.148710000000     0.500000000000     0          
O5C      O      0.568200000000     0.021200000000     0.382860000000     0          
O7C      O      0.872000000000     0.970600000000     0.387600000000     0          
O4D      O      0.625700000000     0.614900000000     0.114290000000     0          
O6C      O      0.020500000000     0.926400000000     0.220880000000     0          
O6B      O      0.905900000000     0.926400000000     0.112460000000     0          
O8B      O      0.092200000000     0.787700000000     0.122250000000     0          
C1C      C      0.601300000000     0.282700000000     0.418580000000     0          
C3C      C      0.761800000000     0.911800000000     0.244800000000     0          
C2C      C      0.513900000000     0.089100000000     0.415190000000     0          
C4C      C      0.954700000000     0.000400000000     0.249450000000     0          
O1C      O      0.524700000000     0.336300000000     0.449380000000     0          
O4C      O      0.385100000000     0.010800000000     0.447630000000     0          
Cd1      Cd     0.813310000000     0.626620000000     0.666733333333     0          
O1       O      0.524700000000     0.188400000000     0.550623333333     0          
O2       O      0.734600000000     0.367700000000     0.607863333333     0          
O3       O      0.039000000000     0.719700000000     0.606843333333     0          
C1       C      0.601300000000     0.318600000000     0.581423333333     0          
C2       C      0.513900000000     0.424800000000     0.584813333333     0          
O4       O      0.385100000000     0.374300000000     0.552373333333     0          
O5       O      0.568200000000     0.547000000000     0.617143333333     0          
O6       O      0.020500000000     0.094100000000     0.779123333333     0          
O7       O      0.872000000000     0.901400000000     0.612403333333     0          
O8       O      0.695500000000     0.907800000000     0.788913333333     0          
C3       C      0.761800000000     0.850000000000     0.755203333333     0          
C4       C      0.954700000000     0.954300000000     0.750553333333     0          
O8C      O      0.212300000000     0.907800000000     0.544423333333     0          
O2C      O      0.633100000000     0.367700000000     0.725473333333     0          
O3C      O      0.680700000000     0.719700000000     0.726493333333     0          
Zr1A     Zr     0.851290000000     0.148720000000     0.833333333333     0          
O5C      O      0.978800000000     0.547000000000     0.716193333333     0          
O7C      O      0.029400000000     0.901400000000     0.720933333333     0          
O6C      O      0.073600000000     0.094100000000     0.554213333333     0          
C1C      C      0.717300000000     0.318600000000     0.751913333333     0          
C3C      C      0.088200000000     0.850000000000     0.578133333333     0          
C2C      C      0.910900000000     0.424800000000     0.748523333333     0          
C4C      C      0.999600000000     0.954300000000     0.582783333333     0          
O1C      O      0.663700000000     0.188400000000     0.782713333333     0          
O4C      O      0.989200000000     0.374300000000     0.780963333333     0          
Cd1      Cd     0.373380000000     0.186690000000     0.000066666667     0          
O1       O      0.811600000000     0.336300000000     0.883956666667     0          
O2       O      0.632300000000     0.366900000000     0.941196666667     0          
O3       O      0.280300000000     0.319300000000     0.940176666667     0          
C1       C      0.681400000000     0.282700000000     0.914756666667     0          
C2       C      0.575200000000     0.089100000000     0.918146666667     0          
O4       O      0.625700000000     0.010800000000     0.885706666667     0          
O5       O      0.453000000000     0.021200000000     0.950476666667     0          
O7       O      0.098600000000     0.970600000000     0.945736666667     0          
C3       C      0.150000000000     0.911800000000     0.088536666667     0          
C4       C      0.045700000000     0.000400000000     0.083886666667     0          
O8C      O      0.092200000000     0.304500000000     0.877756666667     0          
O2C      O      0.632300000000     0.265400000000     0.058806666667     0          
O3C      O      0.280300000000     0.961000000000     0.059826666667     0          
O5C      O      0.453000000000     0.431800000000     0.049526666667     0          
O7C      O      0.098600000000     0.128000000000     0.054266666667     0          
O6C      O      0.905900000000     0.979500000000     0.887546666667     0          
C1C      C      0.681400000000     0.398700000000     0.085246666667     0          
C3C      C      0.150000000000     0.238200000000     0.911466666667     0          
C2C      C      0.575200000000     0.486100000000     0.081856666667     0          
C4C      C      0.045700000000     0.045300000000     0.916116666667     0          


