data_IFUDAO

_audit_creation_method RASPA-1.0
_audit_creation_date 2020-1-15
_audit_author_name 'Rocio Bueno-Perez'

_cell_length_a    9.061
_cell_length_b    9.061
_cell_length_c    23.394
_cell_angle_alpha 90
_cell_angle_beta  90
_cell_angle_gamma 120
_cell_volume      1663.36

_symmetry_cell_setting          hexagonal
_symmetry_space_group_name_Hall 'P 1'
_symmetry_space_group_name_H-M  'P 1'
_symmetry_Int_Tables_number     1

_symmetry_equiv_pos_as_xyz 'x,y,z'

loop_
_atom_site_label
_atom_site_type_symbol
_atom_site_fract_x
_atom_site_fract_y
_atom_site_fract_z
_atom_site_charge
Cd1      Cd     0.000000000000     0.500000000000     0.333300000000     0          
Zr1      Zr     0.500000000000     0.000000000000     0.500000000000     0          
O1       O      0.919900000000     0.262900000000     0.388990000000     0          
O2       O      0.734400000000     0.083200000000     0.452160000000     0          
O3       O      0.546100000000     0.220900000000     0.445760000000     0          
O4       O      0.738800000000     0.435400000000     0.391340000000     0          
C1       C      0.791600000000     0.210900000000     0.418570000000     0          
C2       C      0.685400000000     0.301100000000     0.417630000000     0          
O2C      O      0.265600000000     0.916800000000     0.452160000000     0          
O3C      O      0.453900000000     0.779100000000     0.445760000000     0          
O2G      O      0.651200000000     0.916800000000     0.547840000000     0          
O2J      O      0.348800000000     0.083200000000     0.547840000000     0          
O1C      O      0.080100000000     0.737100000000     0.388990000000     0          
O1H      O      0.080100000000     0.343000000000     0.277680000000     0          
O1K      O      0.919900000000     0.657000000000     0.277680000000     0          
O4C      O      0.261200000000     0.564600000000     0.391340000000     0          
O4H      O      0.261200000000     0.696600000000     0.275330000000     0          
O4K      O      0.738800000000     0.303400000000     0.275330000000     0          
O3G      O      0.325200000000     0.779100000000     0.554240000000     0          
O3J      O      0.674800000000     0.220900000000     0.554240000000     0          
C1C      C      0.208400000000     0.789100000000     0.418570000000     0          
C1H      C      0.208400000000     0.419300000000     0.248100000000     0          
C1K      C      0.791600000000     0.580700000000     0.248100000000     0          
C2C      C      0.314600000000     0.698900000000     0.417630000000     0          
C2H      C      0.314600000000     0.615700000000     0.249040000000     0          
C2K      C      0.685400000000     0.384300000000     0.249040000000     0          
O2H      O      0.265600000000     0.348800000000     0.214510000000     0          
O2K      O      0.734400000000     0.651200000000     0.214510000000     0          
O3H      O      0.453900000000     0.674800000000     0.220910000000     0          
O3K      O      0.546100000000     0.325200000000     0.220910000000     0          
Zr1B     Zr     0.500000000000     0.500000000000     0.166700000000     0          
Cd1      Cd     0.500000000000     0.000000000000     0.999966666667     0          
O1       O      0.657000000000     0.919900000000     0.055656666667     0          
O2       O      0.651200000000     0.734400000000     0.118826666667     0          
O3       O      0.325200000000     0.546100000000     0.112426666667     0          
O4       O      0.303400000000     0.738800000000     0.058006666667     0          
C1       C      0.580700000000     0.791600000000     0.085236666667     0          
C2       C      0.384300000000     0.685400000000     0.084296666667     0          
O2C      O      0.348800000000     0.265600000000     0.118826666667     0          
O3C      O      0.674800000000     0.453900000000     0.112426666667     0          
O1C      O      0.343000000000     0.080100000000     0.055656666667     0          
O1H      O      0.737100000000     0.080100000000     0.944346666667     0          
O1K      O      0.262900000000     0.919900000000     0.944346666667     0          
O4C      O      0.696600000000     0.261200000000     0.058006666667     0          
O4H      O      0.564600000000     0.261200000000     0.941996666667     0          
O4K      O      0.435400000000     0.738800000000     0.941996666667     0          
C1C      C      0.419300000000     0.208400000000     0.085236666667     0          
C1H      C      0.789100000000     0.208400000000     0.914766666667     0          
C1K      C      0.210900000000     0.791600000000     0.914766666667     0          
C2C      C      0.615700000000     0.314600000000     0.084296666667     0          
C2H      C      0.698900000000     0.314600000000     0.915706666667     0          
C2K      C      0.301100000000     0.685400000000     0.915706666667     0          
O2H      O      0.916800000000     0.265600000000     0.881176666667     0          
O2K      O      0.083200000000     0.734400000000     0.881176666667     0          
O3H      O      0.779100000000     0.453900000000     0.887576666667     0          
O3K      O      0.220900000000     0.546100000000     0.887576666667     0          
Zr1B     Zr     0.000000000000     0.500000000000     0.833366666667     0          
Cd1      Cd     0.500000000000     0.500000000000     0.666633333333     0          
O1       O      0.737100000000     0.657000000000     0.722323333333     0          
O2       O      0.916800000000     0.651200000000     0.785493333333     0          
O3       O      0.779100000000     0.325200000000     0.779093333333     0          
O4       O      0.564600000000     0.303400000000     0.724673333333     0          
C1       C      0.789100000000     0.580700000000     0.751903333333     0          
C2       C      0.698900000000     0.384300000000     0.750963333333     0          
O2C      O      0.083200000000     0.348800000000     0.785493333333     0          
O3C      O      0.220900000000     0.674800000000     0.779093333333     0          
O1C      O      0.262900000000     0.343000000000     0.722323333333     0          
O1H      O      0.657000000000     0.737100000000     0.611013333333     0          
O1K      O      0.343000000000     0.262900000000     0.611013333333     0          
O4C      O      0.435400000000     0.696600000000     0.724673333333     0          
O4H      O      0.303400000000     0.564600000000     0.608663333333     0          
O4K      O      0.696600000000     0.435400000000     0.608663333333     0          
C1C      C      0.210900000000     0.419300000000     0.751903333333     0          
C1H      C      0.580700000000     0.789100000000     0.581433333333     0          
C1K      C      0.419300000000     0.210900000000     0.581433333333     0          
C2C      C      0.301100000000     0.615700000000     0.750963333333     0          
C2H      C      0.384300000000     0.698900000000     0.582373333333     0          
C2K      C      0.615700000000     0.301100000000     0.582373333333     0          


