data_ISENEB

_audit_creation_method RASPA-1.0
_audit_creation_date 2020-11-2
_audit_author_name 'Rocio Bueno-Perez'

_cell_length_a    20.8782
_cell_length_b    20.8782
_cell_length_c    20.8782
_cell_angle_alpha 90
_cell_angle_beta  90
_cell_angle_gamma 90
_cell_volume      9100.79

_symmetry_cell_setting          cubic
_symmetry_space_group_name_Hall 'P 1'
_symmetry_space_group_name_H-M  'P 1'
_symmetry_Int_Tables_number     1

_symmetry_equiv_pos_as_xyz 'x,y,z'

loop_
_atom_site_label
_atom_site_type_symbol
_atom_site_fract_x
_atom_site_fract_y
_atom_site_fract_z
_atom_site_charge
C1       C      0.004200000000     0.172600000000     0.376600000000     0          
C2       C      0.003900000000     0.229200000000     0.334000000000     0          
H1       H      0.004900000000     0.269900000000     0.351900000000     0          
C3       C      0.002400000000     0.223100000000     0.271600000000     0          
H2       H      0.001300000000     0.182100000000     0.254400000000     0          
C4       C      0.876900000000     0.170300000000     0.542100000000     0          
C5       C      0.834200000000     0.227700000000     0.548000000000     0          
H3       H      0.852700000000     0.268200000000     0.549300000000     0          
C6       C      0.770600000000     0.222800000000     0.551500000000     0          
H4       H      0.752400000000     0.182200000000     0.554100000000     0          
O1       O      0.016180000000     0.184480000000     0.436920000000     0          
O2       O      0.992300000000     0.118890000000     0.350400000000     0          
O4       O      0.963700000000     0.053600000000     0.572200000000     0          
O5       O      0.849260000000     0.115810000000     0.540300000000     0          
O6       O      0.938660000000     0.182320000000     0.539510000000     0          
Zr1      Zr     0.019680000000     0.115860000000     0.517450000000     0          
O3       O      0.060400000000     0.060400000000     0.439600000000     0          
C1       C      0.495800000000     0.327400000000     0.376600000000     0          
C2       C      0.496100000000     0.270800000000     0.334000000000     0          
H1       H      0.495100000000     0.230100000000     0.351900000000     0          
C3       C      0.497600000000     0.276900000000     0.271600000000     0          
H2       H      0.498700000000     0.317900000000     0.254400000000     0          
C4       C      0.623100000000     0.329700000000     0.542100000000     0          
C5       C      0.665800000000     0.272300000000     0.548000000000     0          
H3       H      0.647300000000     0.231800000000     0.549300000000     0          
C6       C      0.729400000000     0.277200000000     0.551500000000     0          
H4       H      0.747600000000     0.317800000000     0.554100000000     0          
O1       O      0.483820000000     0.315520000000     0.436920000000     0          
O2       O      0.507700000000     0.381110000000     0.350400000000     0          
O4       O      0.536300000000     0.446400000000     0.572200000000     0          
O5       O      0.650740000000     0.384190000000     0.540300000000     0          
O6       O      0.561340000000     0.317680000000     0.539510000000     0          
Zr1      Zr     0.480320000000     0.384140000000     0.517450000000     0          
O3       O      0.439600000000     0.439600000000     0.439600000000     0          
C1       C      0.004200000000     0.327400000000     0.123400000000     0          
C2       C      0.003900000000     0.270800000000     0.166000000000     0          
H1       H      0.004900000000     0.230100000000     0.148100000000     0          
C3       C      0.002400000000     0.276900000000     0.228400000000     0          
H2       H      0.001300000000     0.317900000000     0.245600000000     0          
C4       C      0.876900000000     0.329700000000     0.957900000000     0          
C5       C      0.834200000000     0.272300000000     0.952000000000     0          
H3       H      0.852700000000     0.231800000000     0.950700000000     0          
C6       C      0.770600000000     0.277200000000     0.948500000000     0          
H4       H      0.752400000000     0.317800000000     0.945900000000     0          
O1       O      0.016180000000     0.315520000000     0.063080000000     0          
O2       O      0.992300000000     0.381110000000     0.149600000000     0          
O4       O      0.963700000000     0.446400000000     0.927800000000     0          
O5       O      0.849260000000     0.384190000000     0.959700000000     0          
O6       O      0.938660000000     0.317680000000     0.960490000000     0          
Zr1      Zr     0.019680000000     0.384140000000     0.982550000000     0          
O3       O      0.060400000000     0.439600000000     0.060400000000     0          
C1       C      0.495800000000     0.172600000000     0.123400000000     0          
C2       C      0.496100000000     0.229200000000     0.166000000000     0          
H1       H      0.495100000000     0.269900000000     0.148100000000     0          
C3       C      0.497600000000     0.223100000000     0.228400000000     0          
H2       H      0.498700000000     0.182100000000     0.245600000000     0          
C4       C      0.623100000000     0.170300000000     0.957900000000     0          
C5       C      0.665800000000     0.227700000000     0.952000000000     0          
H3       H      0.647300000000     0.268200000000     0.950700000000     0          
C6       C      0.729400000000     0.222800000000     0.948500000000     0          
H4       H      0.747600000000     0.182200000000     0.945900000000     0          
O1       O      0.483820000000     0.184480000000     0.063080000000     0          
O2       O      0.507700000000     0.118890000000     0.149600000000     0          
O4       O      0.536300000000     0.053600000000     0.927800000000     0          
O5       O      0.650740000000     0.115810000000     0.959700000000     0          
O6       O      0.561340000000     0.182320000000     0.960490000000     0          
Zr1      Zr     0.480320000000     0.115860000000     0.982550000000     0          
O3       O      0.439600000000     0.060400000000     0.060400000000     0          
C1       C      0.376600000000     0.004200000000     0.172600000000     0          
C2       C      0.334000000000     0.003900000000     0.229200000000     0          
H1       H      0.351900000000     0.004900000000     0.269900000000     0          
C3       C      0.271600000000     0.002400000000     0.223100000000     0          
H2       H      0.254400000000     0.001300000000     0.182100000000     0          
C4       C      0.542100000000     0.876900000000     0.170300000000     0          
C5       C      0.548000000000     0.834200000000     0.227700000000     0          
H3       H      0.549300000000     0.852700000000     0.268200000000     0          
C6       C      0.551500000000     0.770600000000     0.222800000000     0          
H4       H      0.554100000000     0.752400000000     0.182200000000     0          
O1       O      0.436920000000     0.016180000000     0.184480000000     0          
O2       O      0.350400000000     0.992300000000     0.118890000000     0          
O4       O      0.572200000000     0.963700000000     0.053600000000     0          
O5       O      0.540300000000     0.849260000000     0.115810000000     0          
O6       O      0.539510000000     0.938660000000     0.182320000000     0          
Zr1      Zr     0.517450000000     0.019680000000     0.115860000000     0          
C1       C      0.123400000000     0.495800000000     0.172600000000     0          
C2       C      0.166000000000     0.496100000000     0.229200000000     0          
H1       H      0.148100000000     0.495100000000     0.269900000000     0          
C3       C      0.228400000000     0.497600000000     0.223100000000     0          
H2       H      0.245600000000     0.498700000000     0.182100000000     0          
C4       C      0.957900000000     0.623100000000     0.170300000000     0          
C5       C      0.952000000000     0.665800000000     0.227700000000     0          
H3       H      0.950700000000     0.647300000000     0.268200000000     0          
C6       C      0.948500000000     0.729400000000     0.222800000000     0          
H4       H      0.945900000000     0.747600000000     0.182200000000     0          
O1       O      0.063080000000     0.483820000000     0.184480000000     0          
O2       O      0.149600000000     0.507700000000     0.118890000000     0          
O4       O      0.927800000000     0.536300000000     0.053600000000     0          
O5       O      0.959700000000     0.650740000000     0.115810000000     0          
O6       O      0.960490000000     0.561340000000     0.182320000000     0          
Zr1      Zr     0.982550000000     0.480320000000     0.115860000000     0          
C1       C      0.376600000000     0.495800000000     0.327400000000     0          
C2       C      0.334000000000     0.496100000000     0.270800000000     0          
H1       H      0.351900000000     0.495100000000     0.230100000000     0          
C3       C      0.271600000000     0.497600000000     0.276900000000     0          
H2       H      0.254400000000     0.498700000000     0.317900000000     0          
C4       C      0.542100000000     0.623100000000     0.329700000000     0          
C5       C      0.548000000000     0.665800000000     0.272300000000     0          
H3       H      0.549300000000     0.647300000000     0.231800000000     0          
C6       C      0.551500000000     0.729400000000     0.277200000000     0          
H4       H      0.554100000000     0.747600000000     0.317800000000     0          
O1       O      0.436920000000     0.483820000000     0.315520000000     0          
O2       O      0.350400000000     0.507700000000     0.381110000000     0          
O4       O      0.572200000000     0.536300000000     0.446400000000     0          
O5       O      0.540300000000     0.650740000000     0.384190000000     0          
O6       O      0.539510000000     0.561340000000     0.317680000000     0          
Zr1      Zr     0.517450000000     0.480320000000     0.384140000000     0          
C1       C      0.123400000000     0.004200000000     0.327400000000     0          
C2       C      0.166000000000     0.003900000000     0.270800000000     0          
H1       H      0.148100000000     0.004900000000     0.230100000000     0          
C3       C      0.228400000000     0.002400000000     0.276900000000     0          
H2       H      0.245600000000     0.001300000000     0.317900000000     0          
C4       C      0.957900000000     0.876900000000     0.329700000000     0          
C5       C      0.952000000000     0.834200000000     0.272300000000     0          
H3       H      0.950700000000     0.852700000000     0.231800000000     0          
C6       C      0.948500000000     0.770600000000     0.277200000000     0          
H4       H      0.945900000000     0.752400000000     0.317800000000     0          
O1       O      0.063080000000     0.016180000000     0.315520000000     0          
O2       O      0.149600000000     0.992300000000     0.381110000000     0          
O4       O      0.927800000000     0.963700000000     0.446400000000     0          
O5       O      0.959700000000     0.849260000000     0.384190000000     0          
O6       O      0.960490000000     0.938660000000     0.317680000000     0          
Zr1      Zr     0.982550000000     0.019680000000     0.384140000000     0          
C1       C      0.172600000000     0.376600000000     0.004200000000     0          
C2       C      0.229200000000     0.334000000000     0.003900000000     0          
H1       H      0.269900000000     0.351900000000     0.004900000000     0          
C3       C      0.223100000000     0.271600000000     0.002400000000     0          
H2       H      0.182100000000     0.254400000000     0.001300000000     0          
C4       C      0.170300000000     0.542100000000     0.876900000000     0          
C5       C      0.227700000000     0.548000000000     0.834200000000     0          
H3       H      0.268200000000     0.549300000000     0.852700000000     0          
C6       C      0.222800000000     0.551500000000     0.770600000000     0          
H4       H      0.182200000000     0.554100000000     0.752400000000     0          
O1       O      0.184480000000     0.436920000000     0.016180000000     0          
O2       O      0.118890000000     0.350400000000     0.992300000000     0          
O4       O      0.053600000000     0.572200000000     0.963700000000     0          
O5       O      0.115810000000     0.540300000000     0.849260000000     0          
O6       O      0.182320000000     0.539510000000     0.938660000000     0          
Zr1      Zr     0.115860000000     0.517450000000     0.019680000000     0          
C1       C      0.172600000000     0.123400000000     0.495800000000     0          
C2       C      0.229200000000     0.166000000000     0.496100000000     0          
H1       H      0.269900000000     0.148100000000     0.495100000000     0          
C3       C      0.223100000000     0.228400000000     0.497600000000     0          
H2       H      0.182100000000     0.245600000000     0.498700000000     0          
C4       C      0.170300000000     0.957900000000     0.623100000000     0          
C5       C      0.227700000000     0.952000000000     0.665800000000     0          
H3       H      0.268200000000     0.950700000000     0.647300000000     0          
C6       C      0.222800000000     0.948500000000     0.729400000000     0          
H4       H      0.182200000000     0.945900000000     0.747600000000     0          
O1       O      0.184480000000     0.063080000000     0.483820000000     0          
O2       O      0.118890000000     0.149600000000     0.507700000000     0          
O4       O      0.053600000000     0.927800000000     0.536300000000     0          
O5       O      0.115810000000     0.959700000000     0.650740000000     0          
O6       O      0.182320000000     0.960490000000     0.561340000000     0          
Zr1      Zr     0.115860000000     0.982550000000     0.480320000000     0          
C1       C      0.327400000000     0.376600000000     0.495800000000     0          
C2       C      0.270800000000     0.334000000000     0.496100000000     0          
H1       H      0.230100000000     0.351900000000     0.495100000000     0          
C3       C      0.276900000000     0.271600000000     0.497600000000     0          
H2       H      0.317900000000     0.254400000000     0.498700000000     0          
C4       C      0.329700000000     0.542100000000     0.623100000000     0          
C5       C      0.272300000000     0.548000000000     0.665800000000     0          
H3       H      0.231800000000     0.549300000000     0.647300000000     0          
C6       C      0.277200000000     0.551500000000     0.729400000000     0          
H4       H      0.317800000000     0.554100000000     0.747600000000     0          
O1       O      0.315520000000     0.436920000000     0.483820000000     0          
O2       O      0.381110000000     0.350400000000     0.507700000000     0          
O4       O      0.446400000000     0.572200000000     0.536300000000     0          
O5       O      0.384190000000     0.540300000000     0.650740000000     0          
O6       O      0.317680000000     0.539510000000     0.561340000000     0          
Zr1      Zr     0.384140000000     0.517450000000     0.480320000000     0          
C1       C      0.327400000000     0.123400000000     0.004200000000     0          
C2       C      0.270800000000     0.166000000000     0.003900000000     0          
H1       H      0.230100000000     0.148100000000     0.004900000000     0          
C3       C      0.276900000000     0.228400000000     0.002400000000     0          
H2       H      0.317900000000     0.245600000000     0.001300000000     0          
C4       C      0.329700000000     0.957900000000     0.876900000000     0          
C5       C      0.272300000000     0.952000000000     0.834200000000     0          
H3       H      0.231800000000     0.950700000000     0.852700000000     0          
C6       C      0.277200000000     0.948500000000     0.770600000000     0          
H4       H      0.317800000000     0.945900000000     0.752400000000     0          
O1       O      0.315520000000     0.063080000000     0.016180000000     0          
O2       O      0.381110000000     0.149600000000     0.992300000000     0          
O4       O      0.446400000000     0.927800000000     0.963700000000     0          
O5       O      0.384190000000     0.959700000000     0.849260000000     0          
O6       O      0.317680000000     0.960490000000     0.938660000000     0          
Zr1      Zr     0.384140000000     0.982550000000     0.019680000000     0          
C1       C      0.995800000000     0.827400000000     0.623400000000     0          
C2       C      0.996100000000     0.770800000000     0.666000000000     0          
H1       H      0.995100000000     0.730100000000     0.648100000000     0          
C3       C      0.997600000000     0.776900000000     0.728400000000     0          
H2       H      0.998700000000     0.817900000000     0.745600000000     0          
C4       C      0.123100000000     0.829700000000     0.457900000000     0          
C5       C      0.165800000000     0.772300000000     0.452000000000     0          
H3       H      0.147300000000     0.731800000000     0.450700000000     0          
C6       C      0.229400000000     0.777200000000     0.448500000000     0          
H4       H      0.247600000000     0.817800000000     0.445900000000     0          
O1       O      0.983820000000     0.815520000000     0.563080000000     0          
O2       O      0.007700000000     0.881110000000     0.649600000000     0          
O4       O      0.036300000000     0.946400000000     0.427800000000     0          
O5       O      0.150740000000     0.884190000000     0.459700000000     0          
O6       O      0.061340000000     0.817680000000     0.460490000000     0          
Zr1      Zr     0.980320000000     0.884140000000     0.482550000000     0          
O3       O      0.939600000000     0.939600000000     0.560400000000     0          
C1       C      0.504200000000     0.672600000000     0.623400000000     0          
C2       C      0.503900000000     0.729200000000     0.666000000000     0          
H1       H      0.504900000000     0.769900000000     0.648100000000     0          
C3       C      0.502400000000     0.723100000000     0.728400000000     0          
H2       H      0.501300000000     0.682100000000     0.745600000000     0          
C4       C      0.376900000000     0.670300000000     0.457900000000     0          
C5       C      0.334200000000     0.727700000000     0.452000000000     0          
H3       H      0.352700000000     0.768200000000     0.450700000000     0          
C6       C      0.270600000000     0.722800000000     0.448500000000     0          
H4       H      0.252400000000     0.682200000000     0.445900000000     0          
O1       O      0.516180000000     0.684480000000     0.563080000000     0          
O2       O      0.492300000000     0.618890000000     0.649600000000     0          
O4       O      0.463700000000     0.553600000000     0.427800000000     0          
O5       O      0.349260000000     0.615810000000     0.459700000000     0          
O6       O      0.438660000000     0.682320000000     0.460490000000     0          
Zr1      Zr     0.519680000000     0.615860000000     0.482550000000     0          
O3       O      0.560400000000     0.560400000000     0.560400000000     0          
C1       C      0.995800000000     0.672600000000     0.876600000000     0          
C2       C      0.996100000000     0.729200000000     0.834000000000     0          
H1       H      0.995100000000     0.769900000000     0.851900000000     0          
C3       C      0.997600000000     0.723100000000     0.771600000000     0          
H2       H      0.998700000000     0.682100000000     0.754400000000     0          
C4       C      0.123100000000     0.670300000000     0.042100000000     0          
C5       C      0.165800000000     0.727700000000     0.048000000000     0          
H3       H      0.147300000000     0.768200000000     0.049300000000     0          
C6       C      0.229400000000     0.722800000000     0.051500000000     0          
H4       H      0.247600000000     0.682200000000     0.054100000000     0          
O1       O      0.983820000000     0.684480000000     0.936920000000     0          
O2       O      0.007700000000     0.618890000000     0.850400000000     0          
O4       O      0.036300000000     0.553600000000     0.072200000000     0          
O5       O      0.150740000000     0.615810000000     0.040300000000     0          
O6       O      0.061340000000     0.682320000000     0.039510000000     0          
Zr1      Zr     0.980320000000     0.615860000000     0.017450000000     0          
O3       O      0.939600000000     0.560400000000     0.939600000000     0          
C1       C      0.504200000000     0.827400000000     0.876600000000     0          
C2       C      0.503900000000     0.770800000000     0.834000000000     0          
H1       H      0.504900000000     0.730100000000     0.851900000000     0          
C3       C      0.502400000000     0.776900000000     0.771600000000     0          
H2       H      0.501300000000     0.817900000000     0.754400000000     0          
C4       C      0.376900000000     0.829700000000     0.042100000000     0          
C5       C      0.334200000000     0.772300000000     0.048000000000     0          
H3       H      0.352700000000     0.731800000000     0.049300000000     0          
C6       C      0.270600000000     0.777200000000     0.051500000000     0          
H4       H      0.252400000000     0.817800000000     0.054100000000     0          
O1       O      0.516180000000     0.815520000000     0.936920000000     0          
O2       O      0.492300000000     0.881110000000     0.850400000000     0          
O4       O      0.463700000000     0.946400000000     0.072200000000     0          
O5       O      0.349260000000     0.884190000000     0.040300000000     0          
O6       O      0.438660000000     0.817680000000     0.039510000000     0          
Zr1      Zr     0.519680000000     0.884140000000     0.017450000000     0          
O3       O      0.560400000000     0.939600000000     0.939600000000     0          
C1       C      0.623400000000     0.995800000000     0.827400000000     0          
C2       C      0.666000000000     0.996100000000     0.770800000000     0          
H1       H      0.648100000000     0.995100000000     0.730100000000     0          
C3       C      0.728400000000     0.997600000000     0.776900000000     0          
H2       H      0.745600000000     0.998700000000     0.817900000000     0          
C4       C      0.457900000000     0.123100000000     0.829700000000     0          
C5       C      0.452000000000     0.165800000000     0.772300000000     0          
H3       H      0.450700000000     0.147300000000     0.731800000000     0          
C6       C      0.448500000000     0.229400000000     0.777200000000     0          
H4       H      0.445900000000     0.247600000000     0.817800000000     0          
O1       O      0.563080000000     0.983820000000     0.815520000000     0          
O2       O      0.649600000000     0.007700000000     0.881110000000     0          
O4       O      0.427800000000     0.036300000000     0.946400000000     0          
O5       O      0.459700000000     0.150740000000     0.884190000000     0          
O6       O      0.460490000000     0.061340000000     0.817680000000     0          
Zr1      Zr     0.482550000000     0.980320000000     0.884140000000     0          
C1       C      0.876600000000     0.504200000000     0.827400000000     0          
C2       C      0.834000000000     0.503900000000     0.770800000000     0          
H1       H      0.851900000000     0.504900000000     0.730100000000     0          
C3       C      0.771600000000     0.502400000000     0.776900000000     0          
H2       H      0.754400000000     0.501300000000     0.817900000000     0          
C4       C      0.042100000000     0.376900000000     0.829700000000     0          
C5       C      0.048000000000     0.334200000000     0.772300000000     0          
H3       H      0.049300000000     0.352700000000     0.731800000000     0          
C6       C      0.051500000000     0.270600000000     0.777200000000     0          
H4       H      0.054100000000     0.252400000000     0.817800000000     0          
O1       O      0.936920000000     0.516180000000     0.815520000000     0          
O2       O      0.850400000000     0.492300000000     0.881110000000     0          
O4       O      0.072200000000     0.463700000000     0.946400000000     0          
O5       O      0.040300000000     0.349260000000     0.884190000000     0          
O6       O      0.039510000000     0.438660000000     0.817680000000     0          
Zr1      Zr     0.017450000000     0.519680000000     0.884140000000     0          
C1       C      0.623400000000     0.504200000000     0.672600000000     0          
C2       C      0.666000000000     0.503900000000     0.729200000000     0          
H1       H      0.648100000000     0.504900000000     0.769900000000     0          
C3       C      0.728400000000     0.502400000000     0.723100000000     0          
H2       H      0.745600000000     0.501300000000     0.682100000000     0          
C4       C      0.457900000000     0.376900000000     0.670300000000     0          
C5       C      0.452000000000     0.334200000000     0.727700000000     0          
H3       H      0.450700000000     0.352700000000     0.768200000000     0          
C6       C      0.448500000000     0.270600000000     0.722800000000     0          
H4       H      0.445900000000     0.252400000000     0.682200000000     0          
O1       O      0.563080000000     0.516180000000     0.684480000000     0          
O2       O      0.649600000000     0.492300000000     0.618890000000     0          
O4       O      0.427800000000     0.463700000000     0.553600000000     0          
O5       O      0.459700000000     0.349260000000     0.615810000000     0          
O6       O      0.460490000000     0.438660000000     0.682320000000     0          
Zr1      Zr     0.482550000000     0.519680000000     0.615860000000     0          
C1       C      0.876600000000     0.995800000000     0.672600000000     0          
C2       C      0.834000000000     0.996100000000     0.729200000000     0          
H1       H      0.851900000000     0.995100000000     0.769900000000     0          
C3       C      0.771600000000     0.997600000000     0.723100000000     0          
H2       H      0.754400000000     0.998700000000     0.682100000000     0          
C4       C      0.042100000000     0.123100000000     0.670300000000     0          
C5       C      0.048000000000     0.165800000000     0.727700000000     0          
H3       H      0.049300000000     0.147300000000     0.768200000000     0          
C6       C      0.051500000000     0.229400000000     0.722800000000     0          
H4       H      0.054100000000     0.247600000000     0.682200000000     0          
O1       O      0.936920000000     0.983820000000     0.684480000000     0          
O2       O      0.850400000000     0.007700000000     0.618890000000     0          
O4       O      0.072200000000     0.036300000000     0.553600000000     0          
O5       O      0.040300000000     0.150740000000     0.615810000000     0          
O6       O      0.039510000000     0.061340000000     0.682320000000     0          
Zr1      Zr     0.017450000000     0.980320000000     0.615860000000     0          
C1       C      0.827400000000     0.623400000000     0.995800000000     0          
C2       C      0.770800000000     0.666000000000     0.996100000000     0          
H1       H      0.730100000000     0.648100000000     0.995100000000     0          
C3       C      0.776900000000     0.728400000000     0.997600000000     0          
H2       H      0.817900000000     0.745600000000     0.998700000000     0          
C4       C      0.829700000000     0.457900000000     0.123100000000     0          
C5       C      0.772300000000     0.452000000000     0.165800000000     0          
H3       H      0.731800000000     0.450700000000     0.147300000000     0          
C6       C      0.777200000000     0.448500000000     0.229400000000     0          
H4       H      0.817800000000     0.445900000000     0.247600000000     0          
O1       O      0.815520000000     0.563080000000     0.983820000000     0          
O2       O      0.881110000000     0.649600000000     0.007700000000     0          
O4       O      0.946400000000     0.427800000000     0.036300000000     0          
O5       O      0.884190000000     0.459700000000     0.150740000000     0          
O6       O      0.817680000000     0.460490000000     0.061340000000     0          
Zr1      Zr     0.884140000000     0.482550000000     0.980320000000     0          
C1       C      0.827400000000     0.876600000000     0.504200000000     0          
C2       C      0.770800000000     0.834000000000     0.503900000000     0          
H1       H      0.730100000000     0.851900000000     0.504900000000     0          
C3       C      0.776900000000     0.771600000000     0.502400000000     0          
H2       H      0.817900000000     0.754400000000     0.501300000000     0          
C4       C      0.829700000000     0.042100000000     0.376900000000     0          
C5       C      0.772300000000     0.048000000000     0.334200000000     0          
H3       H      0.731800000000     0.049300000000     0.352700000000     0          
C6       C      0.777200000000     0.051500000000     0.270600000000     0          
H4       H      0.817800000000     0.054100000000     0.252400000000     0          
O1       O      0.815520000000     0.936920000000     0.516180000000     0          
O2       O      0.881110000000     0.850400000000     0.492300000000     0          
O4       O      0.946400000000     0.072200000000     0.463700000000     0          
O5       O      0.884190000000     0.040300000000     0.349260000000     0          
O6       O      0.817680000000     0.039510000000     0.438660000000     0          
Zr1      Zr     0.884140000000     0.017450000000     0.519680000000     0          
C1       C      0.672600000000     0.623400000000     0.504200000000     0          
C2       C      0.729200000000     0.666000000000     0.503900000000     0          
H1       H      0.769900000000     0.648100000000     0.504900000000     0          
C3       C      0.723100000000     0.728400000000     0.502400000000     0          
H2       H      0.682100000000     0.745600000000     0.501300000000     0          
C4       C      0.670300000000     0.457900000000     0.376900000000     0          
C5       C      0.727700000000     0.452000000000     0.334200000000     0          
H3       H      0.768200000000     0.450700000000     0.352700000000     0          
C6       C      0.722800000000     0.448500000000     0.270600000000     0          
H4       H      0.682200000000     0.445900000000     0.252400000000     0          
O1       O      0.684480000000     0.563080000000     0.516180000000     0          
O2       O      0.618890000000     0.649600000000     0.492300000000     0          
O4       O      0.553600000000     0.427800000000     0.463700000000     0          
O5       O      0.615810000000     0.459700000000     0.349260000000     0          
O6       O      0.682320000000     0.460490000000     0.438660000000     0          
Zr1      Zr     0.615860000000     0.482550000000     0.519680000000     0          
C1       C      0.672600000000     0.876600000000     0.995800000000     0          
C2       C      0.729200000000     0.834000000000     0.996100000000     0          
H1       H      0.769900000000     0.851900000000     0.995100000000     0          
C3       C      0.723100000000     0.771600000000     0.997600000000     0          
H2       H      0.682100000000     0.754400000000     0.998700000000     0          
C4       C      0.670300000000     0.042100000000     0.123100000000     0          
C5       C      0.727700000000     0.048000000000     0.165800000000     0          
H3       H      0.768200000000     0.049300000000     0.147300000000     0          
C6       C      0.722800000000     0.051500000000     0.229400000000     0          
H4       H      0.682200000000     0.054100000000     0.247600000000     0          
O1       O      0.684480000000     0.936920000000     0.983820000000     0          
O2       O      0.618890000000     0.850400000000     0.007700000000     0          
O4       O      0.553600000000     0.072200000000     0.036300000000     0          
O5       O      0.615810000000     0.040300000000     0.150740000000     0          
O6       O      0.682320000000     0.039510000000     0.061340000000     0          
Zr1      Zr     0.615860000000     0.017450000000     0.980320000000     0          


