data_ITONAI02

_audit_creation_method RASPA-1.0
_audit_creation_date 2020-4-3
_audit_author_name 'Rocio Bueno-Perez'

_cell_length_a    21.2895
_cell_length_b    14.5585
_cell_length_c    8.1066
_cell_angle_alpha 90
_cell_angle_beta  84.173
_cell_angle_gamma 90
_cell_volume      2499.6

_symmetry_cell_setting          monoclinic
_symmetry_space_group_name_Hall 'P 1'
_symmetry_space_group_name_H-M  'P 1'
_symmetry_Int_Tables_number     1

_symmetry_equiv_pos_as_xyz 'x,y,z'

loop_
_atom_site_label
_atom_site_type_symbol
_atom_site_fract_x
_atom_site_fract_y
_atom_site_fract_z
_atom_site_charge
Zr1      Zr     0.578510000000     0.619120000000     0.040520000000     0          
O2       O      0.516620000000     0.628300000000     0.833200000000     0          
O3       O      0.611250000000     0.598520000000     0.603100000000     0          
O4       O      0.552250000000     0.766290000000     0.012900000000     0          
O5       O      0.643260000000     0.656600000000     0.834400000000     0          
O6       O      0.673660000000     0.575360000000     0.096800000000     0          
O7       O      0.601700000000     0.685300000000     0.265600000000     0          
C8       C      0.644620000000     0.649030000000     0.679040000000     0          
C9       C      0.697730000000     0.701010000000     0.584230000000     0          
C10      C      0.728600000000     0.772440000000     0.662490000000     0          
N11      N      0.720180000000     0.679070000000     0.420300000000     0          
C12      C      0.542390000000     0.953200000000     0.091800000000     0          
H13      H      0.712210000000     0.792180000000     0.796030000000     0          
H14      H      0.575160000000     0.909730000000     0.162760000000     0          
Zr15     Zr     0.463340000000     0.500000000000     0.306760000000     0          
O16      O      0.556650000000     0.500000000000     0.185800000000     0          
O17      O      0.603000000000     0.500000000000     0.884300000000     0          
C18      C      0.705100000000     0.500000000000     0.105800000000     0          
O19      O      0.500000000000     0.578300000000     0.500000000000     0          
C20      C      0.500000000000     0.803600000000     0.000000000000     0          
C21      C      0.500000000000     0.911600000000     0.000000000000     0          
Zr1      Zr     0.421490000000     0.619120000000     0.959480000000     0          
O2       O      0.483380000000     0.628300000000     0.166800000000     0          
O3       O      0.388750000000     0.598520000000     0.396900000000     0          
O4       O      0.447750000000     0.766290000000     0.987100000000     0          
O5       O      0.356740000000     0.656600000000     0.165600000000     0          
O6       O      0.326340000000     0.575360000000     0.903200000000     0          
O7       O      0.398300000000     0.685300000000     0.734400000000     0          
C8       C      0.355380000000     0.649030000000     0.320960000000     0          
C9       C      0.302270000000     0.701010000000     0.415770000000     0          
C10      C      0.271400000000     0.772440000000     0.337510000000     0          
N11      N      0.279820000000     0.679070000000     0.579700000000     0          
C12      C      0.457610000000     0.953200000000     0.908200000000     0          
H13      H      0.287790000000     0.792180000000     0.203970000000     0          
H14      H      0.424840000000     0.909730000000     0.837240000000     0          
Zr15     Zr     0.536660000000     0.500000000000     0.693240000000     0          
O16      O      0.443350000000     0.500000000000     0.814200000000     0          
O17      O      0.397000000000     0.500000000000     0.115700000000     0          
C18      C      0.294900000000     0.500000000000     0.894200000000     0          
Zr1      Zr     0.421490000000     0.380880000000     0.959480000000     0          
O2       O      0.483380000000     0.371700000000     0.166800000000     0          
O3       O      0.388750000000     0.401480000000     0.396900000000     0          
O4       O      0.447750000000     0.233710000000     0.987100000000     0          
O5       O      0.356740000000     0.343400000000     0.165600000000     0          
O6       O      0.326340000000     0.424640000000     0.903200000000     0          
O7       O      0.398300000000     0.314700000000     0.734400000000     0          
C8       C      0.355380000000     0.350970000000     0.320960000000     0          
C9       C      0.302270000000     0.298990000000     0.415770000000     0          
C10      C      0.271400000000     0.227560000000     0.337510000000     0          
N11      N      0.279820000000     0.320930000000     0.579700000000     0          
C12      C      0.457610000000     0.046800000000     0.908200000000     0          
H13      H      0.287790000000     0.207820000000     0.203970000000     0          
H14      H      0.424840000000     0.090270000000     0.837240000000     0          
O19      O      0.500000000000     0.421700000000     0.500000000000     0          
C20      C      0.500000000000     0.196400000000     0.000000000000     0          
C21      C      0.500000000000     0.088400000000     0.000000000000     0          
Zr1      Zr     0.578510000000     0.380880000000     0.040520000000     0          
O2       O      0.516620000000     0.371700000000     0.833200000000     0          
O3       O      0.611250000000     0.401480000000     0.603100000000     0          
O4       O      0.552250000000     0.233710000000     0.012900000000     0          
O5       O      0.643260000000     0.343400000000     0.834400000000     0          
O6       O      0.673660000000     0.424640000000     0.096800000000     0          
O7       O      0.601700000000     0.314700000000     0.265600000000     0          
C8       C      0.644620000000     0.350970000000     0.679040000000     0          
C9       C      0.697730000000     0.298990000000     0.584230000000     0          
C10      C      0.728600000000     0.227560000000     0.662490000000     0          
N11      N      0.720180000000     0.320930000000     0.420300000000     0          
C12      C      0.542390000000     0.046800000000     0.091800000000     0          
H13      H      0.712210000000     0.207820000000     0.796030000000     0          
H14      H      0.575160000000     0.090270000000     0.162760000000     0          
Zr1      Zr     0.078510000000     0.119120000000     0.040520000000     0          
O2       O      0.016620000000     0.128300000000     0.833200000000     0          
O3       O      0.111250000000     0.098520000000     0.603100000000     0          
O4       O      0.052250000000     0.266290000000     0.012900000000     0          
O5       O      0.143260000000     0.156600000000     0.834400000000     0          
O6       O      0.173660000000     0.075360000000     0.096800000000     0          
O7       O      0.101700000000     0.185300000000     0.265600000000     0          
C8       C      0.144620000000     0.149030000000     0.679040000000     0          
C9       C      0.197730000000     0.201010000000     0.584230000000     0          
C10      C      0.228600000000     0.272440000000     0.662490000000     0          
N11      N      0.220180000000     0.179070000000     0.420300000000     0          
C12      C      0.042390000000     0.453200000000     0.091800000000     0          
H13      H      0.212210000000     0.292180000000     0.796030000000     0          
H14      H      0.075160000000     0.409730000000     0.162760000000     0          
Zr15     Zr     0.963340000000     0.000000000000     0.306760000000     0          
O16      O      0.056650000000     0.000000000000     0.185800000000     0          
O17      O      0.103000000000     0.000000000000     0.884300000000     0          
C18      C      0.205100000000     0.000000000000     0.105800000000     0          
O19      O      0.000000000000     0.078300000000     0.500000000000     0          
C20      C      0.000000000000     0.303600000000     0.000000000000     0          
C21      C      0.000000000000     0.411600000000     0.000000000000     0          
Zr1      Zr     0.921490000000     0.119120000000     0.959480000000     0          
O2       O      0.983380000000     0.128300000000     0.166800000000     0          
O3       O      0.888750000000     0.098520000000     0.396900000000     0          
O4       O      0.947750000000     0.266290000000     0.987100000000     0          
O5       O      0.856740000000     0.156600000000     0.165600000000     0          
O6       O      0.826340000000     0.075360000000     0.903200000000     0          
O7       O      0.898300000000     0.185300000000     0.734400000000     0          
C8       C      0.855380000000     0.149030000000     0.320960000000     0          
C9       C      0.802270000000     0.201010000000     0.415770000000     0          
C10      C      0.771400000000     0.272440000000     0.337510000000     0          
N11      N      0.779820000000     0.179070000000     0.579700000000     0          
C12      C      0.957610000000     0.453200000000     0.908200000000     0          
H13      H      0.787790000000     0.292180000000     0.203970000000     0          
H14      H      0.924840000000     0.409730000000     0.837240000000     0          
Zr15     Zr     0.036660000000     0.000000000000     0.693240000000     0          
O16      O      0.943350000000     0.000000000000     0.814200000000     0          
O17      O      0.897000000000     0.000000000000     0.115700000000     0          
C18      C      0.794900000000     0.000000000000     0.894200000000     0          
Zr1      Zr     0.921490000000     0.880880000000     0.959480000000     0          
O2       O      0.983380000000     0.871700000000     0.166800000000     0          
O3       O      0.888750000000     0.901480000000     0.396900000000     0          
O4       O      0.947750000000     0.733710000000     0.987100000000     0          
O5       O      0.856740000000     0.843400000000     0.165600000000     0          
O6       O      0.826340000000     0.924640000000     0.903200000000     0          
O7       O      0.898300000000     0.814700000000     0.734400000000     0          
C8       C      0.855380000000     0.850970000000     0.320960000000     0          
C9       C      0.802270000000     0.798990000000     0.415770000000     0          
C10      C      0.771400000000     0.727560000000     0.337510000000     0          
N11      N      0.779820000000     0.820930000000     0.579700000000     0          
C12      C      0.957610000000     0.546800000000     0.908200000000     0          
H13      H      0.787790000000     0.707820000000     0.203970000000     0          
H14      H      0.924840000000     0.590270000000     0.837240000000     0          
O19      O      0.000000000000     0.921700000000     0.500000000000     0          
C20      C      0.000000000000     0.696400000000     0.000000000000     0          
C21      C      0.000000000000     0.588400000000     0.000000000000     0          
Zr1      Zr     0.078510000000     0.880880000000     0.040520000000     0          
O2       O      0.016620000000     0.871700000000     0.833200000000     0          
O3       O      0.111250000000     0.901480000000     0.603100000000     0          
O4       O      0.052250000000     0.733710000000     0.012900000000     0          
O5       O      0.143260000000     0.843400000000     0.834400000000     0          
O6       O      0.173660000000     0.924640000000     0.096800000000     0          
O7       O      0.101700000000     0.814700000000     0.265600000000     0          
C8       C      0.144620000000     0.850970000000     0.679040000000     0          
C9       C      0.197730000000     0.798990000000     0.584230000000     0          
C10      C      0.228600000000     0.727560000000     0.662490000000     0          
N11      N      0.220180000000     0.820930000000     0.420300000000     0          
C12      C      0.042390000000     0.546800000000     0.091800000000     0          
H13      H      0.212210000000     0.707820000000     0.796030000000     0          
H14      H      0.075160000000     0.590270000000     0.162760000000     0          


