data_IXEJOM

_audit_creation_method RASPA-1.0
_audit_creation_date 2020-11-2
_audit_author_name 'Rocio Bueno-Perez'

_cell_length_a    24.257
_cell_length_b    24.257
_cell_length_c    15.025
_cell_angle_alpha 90
_cell_angle_beta  90
_cell_angle_gamma 90
_cell_volume      8840.74

_symmetry_cell_setting          tetragonal
_symmetry_space_group_name_Hall 'P 1'
_symmetry_space_group_name_H-M  'P 1'
_symmetry_Int_Tables_number     1

_symmetry_equiv_pos_as_xyz 'x,y,z'

loop_
_atom_site_label
_atom_site_type_symbol
_atom_site_fract_x
_atom_site_fract_y
_atom_site_fract_z
_atom_site_charge
O1       O      0.351890000000     0.054270000000     0.086500000000     0          
O5       O      0.417030000000     0.102800000000     0.164500000000     0          
C1       C      0.366600000000     0.093000000000     0.139300000000     0          
C2       C      0.323000000000     0.128700000000     0.174400000000     0          
C3       C      0.271100000000     0.129300000000     0.135300000000     0          
H1       H      0.263100000000     0.104300000000     0.088400000000     0          
C4       C      0.230300000000     0.166400000000     0.164000000000     0          
C5       C      0.334600000000     0.165100000000     0.242900000000     0          
H2       H      0.370000000000     0.164800000000     0.270000000000     0          
C6       C      0.243200000000     0.203000000000     0.233100000000     0          
C7       C      0.294400000000     0.202500000000     0.272500000000     0          
H3       H      0.302500000000     0.227400000000     0.319500000000     0          
C8       C      0.175400000000     0.163200000000     0.114700000000     0          
F1       F      0.132200000000     0.151200000000     0.166700000000     0          
F2       F      0.162700000000     0.210500000000     0.073400000000     0          
F3       F      0.176300000000     0.124400000000     0.051300000000     0          
Zr1      Zr     0.399630000000     0.000000000000     0.000000000000     0          
Zr2      Zr     0.500000000000     0.072680000000     0.116890000000     0          
O2       O      0.450700000000     0.000000000000     0.116000000000     0          
O6       O      0.451100000000     0.927200000000     0.000000000000     0          
O1       O      0.945730000000     0.351890000000     0.586500000000     0          
O5       O      0.897200000000     0.417030000000     0.664500000000     0          
C1       C      0.907000000000     0.366600000000     0.639300000000     0          
C2       C      0.871300000000     0.323000000000     0.674400000000     0          
C3       C      0.870700000000     0.271100000000     0.635300000000     0          
H1       H      0.895700000000     0.263100000000     0.588400000000     0          
C4       C      0.833600000000     0.230300000000     0.664000000000     0          
C5       C      0.834900000000     0.334600000000     0.742900000000     0          
H2       H      0.835200000000     0.370000000000     0.770000000000     0          
C6       C      0.797000000000     0.243200000000     0.733100000000     0          
C7       C      0.797500000000     0.294400000000     0.772500000000     0          
H3       H      0.772600000000     0.302500000000     0.819500000000     0          
C8       C      0.836800000000     0.175400000000     0.614700000000     0          
F1       F      0.848800000000     0.132200000000     0.666700000000     0          
F2       F      0.789500000000     0.162700000000     0.573400000000     0          
F3       F      0.875600000000     0.176300000000     0.551300000000     0          
Zr1      Zr     0.000000000000     0.399630000000     0.500000000000     0          
Zr2      Zr     0.927320000000     0.500000000000     0.616890000000     0          
O2       O      0.000000000000     0.450700000000     0.616000000000     0          
O6       O      0.072800000000     0.451100000000     0.500000000000     0          
O1       O      0.648110000000     0.945730000000     0.086500000000     0          
O5       O      0.582970000000     0.897200000000     0.164500000000     0          
C1       C      0.633400000000     0.907000000000     0.139300000000     0          
C2       C      0.677000000000     0.871300000000     0.174400000000     0          
C3       C      0.728900000000     0.870700000000     0.135300000000     0          
H1       H      0.736900000000     0.895700000000     0.088400000000     0          
C4       C      0.769700000000     0.833600000000     0.164000000000     0          
C5       C      0.665400000000     0.834900000000     0.242900000000     0          
H2       H      0.630000000000     0.835200000000     0.270000000000     0          
C6       C      0.756800000000     0.797000000000     0.233100000000     0          
C7       C      0.705600000000     0.797500000000     0.272500000000     0          
H3       H      0.697500000000     0.772600000000     0.319500000000     0          
C8       C      0.824600000000     0.836800000000     0.114700000000     0          
F1       F      0.867800000000     0.848800000000     0.166700000000     0          
F2       F      0.837300000000     0.789500000000     0.073400000000     0          
F3       F      0.823700000000     0.875600000000     0.051300000000     0          
Zr1      Zr     0.600370000000     0.000000000000     0.000000000000     0          
Zr2      Zr     0.500000000000     0.927320000000     0.116890000000     0          
O2       O      0.549300000000     0.000000000000     0.116000000000     0          
O6       O      0.548900000000     0.072800000000     0.000000000000     0          
O1       O      0.054270000000     0.648110000000     0.586500000000     0          
O5       O      0.102800000000     0.582970000000     0.664500000000     0          
C1       C      0.093000000000     0.633400000000     0.639300000000     0          
C2       C      0.128700000000     0.677000000000     0.674400000000     0          
C3       C      0.129300000000     0.728900000000     0.635300000000     0          
H1       H      0.104300000000     0.736900000000     0.588400000000     0          
C4       C      0.166400000000     0.769700000000     0.664000000000     0          
C5       C      0.165100000000     0.665400000000     0.742900000000     0          
H2       H      0.164800000000     0.630000000000     0.770000000000     0          
C6       C      0.203000000000     0.756800000000     0.733100000000     0          
C7       C      0.202500000000     0.705600000000     0.772500000000     0          
H3       H      0.227400000000     0.697500000000     0.819500000000     0          
C8       C      0.163200000000     0.824600000000     0.614700000000     0          
F1       F      0.151200000000     0.867800000000     0.666700000000     0          
F2       F      0.210500000000     0.837300000000     0.573400000000     0          
F3       F      0.124400000000     0.823700000000     0.551300000000     0          
Zr1      Zr     0.000000000000     0.600370000000     0.500000000000     0          
Zr2      Zr     0.072680000000     0.500000000000     0.616890000000     0          
O2       O      0.000000000000     0.549300000000     0.616000000000     0          
O6       O      0.927200000000     0.548900000000     0.500000000000     0          
O1       O      0.351890000000     0.945730000000     0.913500000000     0          
O5       O      0.417030000000     0.897200000000     0.835500000000     0          
C1       C      0.366600000000     0.907000000000     0.860700000000     0          
C2       C      0.323000000000     0.871300000000     0.825600000000     0          
C3       C      0.271100000000     0.870700000000     0.864700000000     0          
H1       H      0.263100000000     0.895700000000     0.911600000000     0          
C4       C      0.230300000000     0.833600000000     0.836000000000     0          
C5       C      0.334600000000     0.834900000000     0.757100000000     0          
H2       H      0.370000000000     0.835200000000     0.730000000000     0          
C6       C      0.243200000000     0.797000000000     0.766900000000     0          
C7       C      0.294400000000     0.797500000000     0.727500000000     0          
H3       H      0.302500000000     0.772600000000     0.680500000000     0          
C8       C      0.175400000000     0.836800000000     0.885300000000     0          
F1       F      0.132200000000     0.848800000000     0.833300000000     0          
F2       F      0.162700000000     0.789500000000     0.926600000000     0          
F3       F      0.176300000000     0.875600000000     0.948700000000     0          
Zr2      Zr     0.500000000000     0.927320000000     0.883110000000     0          
O2       O      0.450700000000     0.000000000000     0.884000000000     0          
O6       O      0.451100000000     0.072800000000     0.000000000000     0          
O1       O      0.054270000000     0.351890000000     0.413500000000     0          
O5       O      0.102800000000     0.417030000000     0.335500000000     0          
C1       C      0.093000000000     0.366600000000     0.360700000000     0          
C2       C      0.128700000000     0.323000000000     0.325600000000     0          
C3       C      0.129300000000     0.271100000000     0.364700000000     0          
H1       H      0.104300000000     0.263100000000     0.411600000000     0          
C4       C      0.166400000000     0.230300000000     0.336000000000     0          
C5       C      0.165100000000     0.334600000000     0.257100000000     0          
H2       H      0.164800000000     0.370000000000     0.230000000000     0          
C6       C      0.203000000000     0.243200000000     0.266900000000     0          
C7       C      0.202500000000     0.294400000000     0.227500000000     0          
H3       H      0.227400000000     0.302500000000     0.180500000000     0          
C8       C      0.163200000000     0.175400000000     0.385300000000     0          
F1       F      0.151200000000     0.132200000000     0.333300000000     0          
F2       F      0.210500000000     0.162700000000     0.426600000000     0          
F3       F      0.124400000000     0.176300000000     0.448700000000     0          
Zr2      Zr     0.072680000000     0.500000000000     0.383110000000     0          
O2       O      0.000000000000     0.450700000000     0.384000000000     0          
O6       O      0.927200000000     0.451100000000     0.500000000000     0          
O1       O      0.648110000000     0.054270000000     0.913500000000     0          
O5       O      0.582970000000     0.102800000000     0.835500000000     0          
C1       C      0.633400000000     0.093000000000     0.860700000000     0          
C2       C      0.677000000000     0.128700000000     0.825600000000     0          
C3       C      0.728900000000     0.129300000000     0.864700000000     0          
H1       H      0.736900000000     0.104300000000     0.911600000000     0          
C4       C      0.769700000000     0.166400000000     0.836000000000     0          
C5       C      0.665400000000     0.165100000000     0.757100000000     0          
H2       H      0.630000000000     0.164800000000     0.730000000000     0          
C6       C      0.756800000000     0.203000000000     0.766900000000     0          
C7       C      0.705600000000     0.202500000000     0.727500000000     0          
H3       H      0.697500000000     0.227400000000     0.680500000000     0          
C8       C      0.824600000000     0.163200000000     0.885300000000     0          
F1       F      0.867800000000     0.151200000000     0.833300000000     0          
F2       F      0.837300000000     0.210500000000     0.926600000000     0          
F3       F      0.823700000000     0.124400000000     0.948700000000     0          
Zr2      Zr     0.500000000000     0.072680000000     0.883110000000     0          
O2       O      0.549300000000     0.000000000000     0.884000000000     0          
O6       O      0.548900000000     0.927200000000     0.000000000000     0          
O1       O      0.945730000000     0.648110000000     0.413500000000     0          
O5       O      0.897200000000     0.582970000000     0.335500000000     0          
C1       C      0.907000000000     0.633400000000     0.360700000000     0          
C2       C      0.871300000000     0.677000000000     0.325600000000     0          
C3       C      0.870700000000     0.728900000000     0.364700000000     0          
H1       H      0.895700000000     0.736900000000     0.411600000000     0          
C4       C      0.833600000000     0.769700000000     0.336000000000     0          
C5       C      0.834900000000     0.665400000000     0.257100000000     0          
H2       H      0.835200000000     0.630000000000     0.230000000000     0          
C6       C      0.797000000000     0.756800000000     0.266900000000     0          
C7       C      0.797500000000     0.705600000000     0.227500000000     0          
H3       H      0.772600000000     0.697500000000     0.180500000000     0          
C8       C      0.836800000000     0.824600000000     0.385300000000     0          
F1       F      0.848800000000     0.867800000000     0.333300000000     0          
F2       F      0.789500000000     0.837300000000     0.426600000000     0          
F3       F      0.875600000000     0.823700000000     0.448700000000     0          
Zr2      Zr     0.927320000000     0.500000000000     0.383110000000     0          
O2       O      0.000000000000     0.549300000000     0.384000000000     0          
O6       O      0.072800000000     0.548900000000     0.500000000000     0          
O1       O      0.648110000000     0.945730000000     0.913500000000     0          
O5       O      0.582970000000     0.897200000000     0.835500000000     0          
C1       C      0.633400000000     0.907000000000     0.860700000000     0          
C2       C      0.677000000000     0.871300000000     0.825600000000     0          
C3       C      0.728900000000     0.870700000000     0.864700000000     0          
H1       H      0.736900000000     0.895700000000     0.911600000000     0          
C4       C      0.769700000000     0.833600000000     0.836000000000     0          
C5       C      0.665400000000     0.834900000000     0.757100000000     0          
H2       H      0.630000000000     0.835200000000     0.730000000000     0          
C6       C      0.756800000000     0.797000000000     0.766900000000     0          
C7       C      0.705600000000     0.797500000000     0.727500000000     0          
H3       H      0.697500000000     0.772600000000     0.680500000000     0          
C8       C      0.824600000000     0.836800000000     0.885300000000     0          
F1       F      0.867800000000     0.848800000000     0.833300000000     0          
F2       F      0.837300000000     0.789500000000     0.926600000000     0          
F3       F      0.823700000000     0.875600000000     0.948700000000     0          
O1       O      0.054270000000     0.648110000000     0.413500000000     0          
O5       O      0.102800000000     0.582970000000     0.335500000000     0          
C1       C      0.093000000000     0.633400000000     0.360700000000     0          
C2       C      0.128700000000     0.677000000000     0.325600000000     0          
C3       C      0.129300000000     0.728900000000     0.364700000000     0          
H1       H      0.104300000000     0.736900000000     0.411600000000     0          
C4       C      0.166400000000     0.769700000000     0.336000000000     0          
C5       C      0.165100000000     0.665400000000     0.257100000000     0          
H2       H      0.164800000000     0.630000000000     0.230000000000     0          
C6       C      0.203000000000     0.756800000000     0.266900000000     0          
C7       C      0.202500000000     0.705600000000     0.227500000000     0          
H3       H      0.227400000000     0.697500000000     0.180500000000     0          
C8       C      0.163200000000     0.824600000000     0.385300000000     0          
F1       F      0.151200000000     0.867800000000     0.333300000000     0          
F2       F      0.210500000000     0.837300000000     0.426600000000     0          
F3       F      0.124400000000     0.823700000000     0.448700000000     0          
O1       O      0.351890000000     0.054270000000     0.913500000000     0          
O5       O      0.417030000000     0.102800000000     0.835500000000     0          
C1       C      0.366600000000     0.093000000000     0.860700000000     0          
C2       C      0.323000000000     0.128700000000     0.825600000000     0          
C3       C      0.271100000000     0.129300000000     0.864700000000     0          
H1       H      0.263100000000     0.104300000000     0.911600000000     0          
C4       C      0.230300000000     0.166400000000     0.836000000000     0          
C5       C      0.334600000000     0.165100000000     0.757100000000     0          
H2       H      0.370000000000     0.164800000000     0.730000000000     0          
C6       C      0.243200000000     0.203000000000     0.766900000000     0          
C7       C      0.294400000000     0.202500000000     0.727500000000     0          
H3       H      0.302500000000     0.227400000000     0.680500000000     0          
C8       C      0.175400000000     0.163200000000     0.885300000000     0          
F1       F      0.132200000000     0.151200000000     0.833300000000     0          
F2       F      0.162700000000     0.210500000000     0.926600000000     0          
F3       F      0.176300000000     0.124400000000     0.948700000000     0          
O1       O      0.945730000000     0.351890000000     0.413500000000     0          
O5       O      0.897200000000     0.417030000000     0.335500000000     0          
C1       C      0.907000000000     0.366600000000     0.360700000000     0          
C2       C      0.871300000000     0.323000000000     0.325600000000     0          
C3       C      0.870700000000     0.271100000000     0.364700000000     0          
H1       H      0.895700000000     0.263100000000     0.411600000000     0          
C4       C      0.833600000000     0.230300000000     0.336000000000     0          
C5       C      0.834900000000     0.334600000000     0.257100000000     0          
H2       H      0.835200000000     0.370000000000     0.230000000000     0          
C6       C      0.797000000000     0.243200000000     0.266900000000     0          
C7       C      0.797500000000     0.294400000000     0.227500000000     0          
H3       H      0.772600000000     0.302500000000     0.180500000000     0          
C8       C      0.836800000000     0.175400000000     0.385300000000     0          
F1       F      0.848800000000     0.132200000000     0.333300000000     0          
F2       F      0.789500000000     0.162700000000     0.426600000000     0          
F3       F      0.875600000000     0.176300000000     0.448700000000     0          
O1       O      0.648110000000     0.054270000000     0.086500000000     0          
O5       O      0.582970000000     0.102800000000     0.164500000000     0          
C1       C      0.633400000000     0.093000000000     0.139300000000     0          
C2       C      0.677000000000     0.128700000000     0.174400000000     0          
C3       C      0.728900000000     0.129300000000     0.135300000000     0          
H1       H      0.736900000000     0.104300000000     0.088400000000     0          
C4       C      0.769700000000     0.166400000000     0.164000000000     0          
C5       C      0.665400000000     0.165100000000     0.242900000000     0          
H2       H      0.630000000000     0.164800000000     0.270000000000     0          
C6       C      0.756800000000     0.203000000000     0.233100000000     0          
C7       C      0.705600000000     0.202500000000     0.272500000000     0          
H3       H      0.697500000000     0.227400000000     0.319500000000     0          
C8       C      0.824600000000     0.163200000000     0.114700000000     0          
F1       F      0.867800000000     0.151200000000     0.166700000000     0          
F2       F      0.837300000000     0.210500000000     0.073400000000     0          
F3       F      0.823700000000     0.124400000000     0.051300000000     0          
O1       O      0.945730000000     0.648110000000     0.586500000000     0          
O5       O      0.897200000000     0.582970000000     0.664500000000     0          
C1       C      0.907000000000     0.633400000000     0.639300000000     0          
C2       C      0.871300000000     0.677000000000     0.674400000000     0          
C3       C      0.870700000000     0.728900000000     0.635300000000     0          
H1       H      0.895700000000     0.736900000000     0.588400000000     0          
C4       C      0.833600000000     0.769700000000     0.664000000000     0          
C5       C      0.834900000000     0.665400000000     0.742900000000     0          
H2       H      0.835200000000     0.630000000000     0.770000000000     0          
C6       C      0.797000000000     0.756800000000     0.733100000000     0          
C7       C      0.797500000000     0.705600000000     0.772500000000     0          
H3       H      0.772600000000     0.697500000000     0.819500000000     0          
C8       C      0.836800000000     0.824600000000     0.614700000000     0          
F1       F      0.848800000000     0.867800000000     0.666700000000     0          
F2       F      0.789500000000     0.837300000000     0.573400000000     0          
F3       F      0.875600000000     0.823700000000     0.551300000000     0          
O1       O      0.351890000000     0.945730000000     0.086500000000     0          
O5       O      0.417030000000     0.897200000000     0.164500000000     0          
C1       C      0.366600000000     0.907000000000     0.139300000000     0          
C2       C      0.323000000000     0.871300000000     0.174400000000     0          
C3       C      0.271100000000     0.870700000000     0.135300000000     0          
H1       H      0.263100000000     0.895700000000     0.088400000000     0          
C4       C      0.230300000000     0.833600000000     0.164000000000     0          
C5       C      0.334600000000     0.834900000000     0.242900000000     0          
H2       H      0.370000000000     0.835200000000     0.270000000000     0          
C6       C      0.243200000000     0.797000000000     0.233100000000     0          
C7       C      0.294400000000     0.797500000000     0.272500000000     0          
H3       H      0.302500000000     0.772600000000     0.319500000000     0          
C8       C      0.175400000000     0.836800000000     0.114700000000     0          
F1       F      0.132200000000     0.848800000000     0.166700000000     0          
F2       F      0.162700000000     0.789500000000     0.073400000000     0          
F3       F      0.176300000000     0.875600000000     0.051300000000     0          
O1       O      0.054270000000     0.351890000000     0.586500000000     0          
O5       O      0.102800000000     0.417030000000     0.664500000000     0          
C1       C      0.093000000000     0.366600000000     0.639300000000     0          
C2       C      0.128700000000     0.323000000000     0.674400000000     0          
C3       C      0.129300000000     0.271100000000     0.635300000000     0          
H1       H      0.104300000000     0.263100000000     0.588400000000     0          
C4       C      0.166400000000     0.230300000000     0.664000000000     0          
C5       C      0.165100000000     0.334600000000     0.742900000000     0          
H2       H      0.164800000000     0.370000000000     0.770000000000     0          
C6       C      0.203000000000     0.243200000000     0.733100000000     0          
C7       C      0.202500000000     0.294400000000     0.772500000000     0          
H3       H      0.227400000000     0.302500000000     0.819500000000     0          
C8       C      0.163200000000     0.175400000000     0.614700000000     0          
F1       F      0.151200000000     0.132200000000     0.666700000000     0          
F2       F      0.210500000000     0.162700000000     0.573400000000     0          
F3       F      0.124400000000     0.176300000000     0.551300000000     0          


