data_IZIBUQ

_audit_creation_method RASPA-1.0
_audit_creation_date 2020-4-3
_audit_author_name 'Rocio Bueno-Perez'

_cell_length_a    20.1413
_cell_length_b    34.892
_cell_length_c    11.1939
_cell_angle_alpha 90
_cell_angle_beta  90
_cell_angle_gamma 90
_cell_volume      7866.74

_symmetry_cell_setting          orthorhombic
_symmetry_space_group_name_Hall 'P 1'
_symmetry_space_group_name_H-M  'P 1'
_symmetry_Int_Tables_number     1

_symmetry_equiv_pos_as_xyz 'x,y,z'

loop_
_atom_site_label
_atom_site_type_symbol
_atom_site_fract_x
_atom_site_fract_y
_atom_site_fract_z
_atom_site_charge
O1       O      0.934530000000     0.894020000000     0.102000000000     0          
O2       O      0.897900000000     0.942410000000     0.219500000000     0          
C3       C      0.784820000000     0.780130000000     0.437390000000     0          
C4       C      0.810080000000     0.813000000000     0.369100000000     0          
C5       C      0.867210000000     0.807830000000     0.300770000000     0          
C6       C      0.895240000000     0.838690000000     0.241280000000     0          
C7       C      0.780220000000     0.849350000000     0.374770000000     0          
C8       C      0.900650000000     0.906850000000     0.187000000000     0          
C9       C      0.867080000000     0.875360000000     0.249310000000     0          
C10      C      0.808910000000     0.880630000000     0.315720000000     0          
H11      H      0.890870000000     0.778230000000     0.293810000000     0          
H12      H      0.941800000000     0.834440000000     0.184900000000     0          
H13      H      0.732380000000     0.853510000000     0.427640000000     0          
H14      H      0.784880000000     0.910150000000     0.321930000000     0          
Zr15     Zr     0.500000000000     0.565680000000     0.000000000000     0          
C16      C      0.750000000000     0.750000000000     0.376900000000     0          
Zr17     Zr     0.418870000000     0.500000000000     0.846500000000     0          
O18      O      0.314950000000     0.500000000000     0.871300000000     0          
O19      O      0.440700000000     0.500000000000     0.654000000000     0          
O20      O      0.396800000000     0.537140000000     0.000000000000     0          
O21      O      0.500000000000     0.539660000000     0.820700000000     0          
O1       O      0.065470000000     0.105980000000     0.102000000000     0          
O2       O      0.102100000000     0.057590000000     0.219500000000     0          
C3       C      0.215180000000     0.219870000000     0.437390000000     0          
C4       C      0.189920000000     0.187000000000     0.369100000000     0          
C5       C      0.132790000000     0.192170000000     0.300770000000     0          
C6       C      0.104760000000     0.161310000000     0.241280000000     0          
C7       C      0.219780000000     0.150650000000     0.374770000000     0          
C8       C      0.099350000000     0.093150000000     0.187000000000     0          
C9       C      0.132920000000     0.124640000000     0.249310000000     0          
C10      C      0.191090000000     0.119370000000     0.315720000000     0          
H11      H      0.109130000000     0.221770000000     0.293810000000     0          
H12      H      0.058200000000     0.165560000000     0.184900000000     0          
H13      H      0.267620000000     0.146490000000     0.427640000000     0          
H14      H      0.215120000000     0.089850000000     0.321930000000     0          
Zr15     Zr     0.500000000000     0.434320000000     0.000000000000     0          
C16      C      0.250000000000     0.250000000000     0.376900000000     0          
Zr17     Zr     0.581130000000     0.500000000000     0.846500000000     0          
O18      O      0.685050000000     0.500000000000     0.871300000000     0          
O19      O      0.559300000000     0.500000000000     0.654000000000     0          
O20      O      0.603200000000     0.462860000000     0.000000000000     0          
O21      O      0.500000000000     0.460340000000     0.820700000000     0          
O1       O      0.934530000000     0.105980000000     0.898000000000     0          
O2       O      0.897900000000     0.057590000000     0.780500000000     0          
C3       C      0.784820000000     0.219870000000     0.562610000000     0          
C4       C      0.810080000000     0.187000000000     0.630900000000     0          
C5       C      0.867210000000     0.192170000000     0.699230000000     0          
C6       C      0.895240000000     0.161310000000     0.758720000000     0          
C7       C      0.780220000000     0.150650000000     0.625230000000     0          
C8       C      0.900650000000     0.093150000000     0.813000000000     0          
C9       C      0.867080000000     0.124640000000     0.750690000000     0          
C10      C      0.808910000000     0.119370000000     0.684280000000     0          
H11      H      0.890870000000     0.221770000000     0.706190000000     0          
H12      H      0.941800000000     0.165560000000     0.815100000000     0          
H13      H      0.732380000000     0.146490000000     0.572360000000     0          
H14      H      0.784880000000     0.089850000000     0.678070000000     0          
C16      C      0.750000000000     0.250000000000     0.623100000000     0          
Zr17     Zr     0.418870000000     0.500000000000     0.153500000000     0          
O18      O      0.314950000000     0.500000000000     0.128700000000     0          
O19      O      0.440700000000     0.500000000000     0.346000000000     0          
O20      O      0.396800000000     0.462860000000     0.000000000000     0          
O21      O      0.500000000000     0.460340000000     0.179300000000     0          
O1       O      0.065470000000     0.894020000000     0.898000000000     0          
O2       O      0.102100000000     0.942410000000     0.780500000000     0          
C3       C      0.215180000000     0.780130000000     0.562610000000     0          
C4       C      0.189920000000     0.813000000000     0.630900000000     0          
C5       C      0.132790000000     0.807830000000     0.699230000000     0          
C6       C      0.104760000000     0.838690000000     0.758720000000     0          
C7       C      0.219780000000     0.849350000000     0.625230000000     0          
C8       C      0.099350000000     0.906850000000     0.813000000000     0          
C9       C      0.132920000000     0.875360000000     0.750690000000     0          
C10      C      0.191090000000     0.880630000000     0.684280000000     0          
H11      H      0.109130000000     0.778230000000     0.706190000000     0          
H12      H      0.058200000000     0.834440000000     0.815100000000     0          
H13      H      0.267620000000     0.853510000000     0.572360000000     0          
H14      H      0.215120000000     0.910150000000     0.678070000000     0          
C16      C      0.250000000000     0.750000000000     0.623100000000     0          
Zr17     Zr     0.581130000000     0.500000000000     0.153500000000     0          
O18      O      0.685050000000     0.500000000000     0.128700000000     0          
O19      O      0.559300000000     0.500000000000     0.346000000000     0          
O20      O      0.603200000000     0.537140000000     0.000000000000     0          
O21      O      0.500000000000     0.539660000000     0.179300000000     0          
O1       O      0.065470000000     0.105980000000     0.898000000000     0          
O2       O      0.102100000000     0.057590000000     0.780500000000     0          
C3       C      0.215180000000     0.219870000000     0.562610000000     0          
C4       C      0.189920000000     0.187000000000     0.630900000000     0          
C5       C      0.132790000000     0.192170000000     0.699230000000     0          
C6       C      0.104760000000     0.161310000000     0.758720000000     0          
C7       C      0.219780000000     0.150650000000     0.625230000000     0          
C8       C      0.099350000000     0.093150000000     0.813000000000     0          
C9       C      0.132920000000     0.124640000000     0.750690000000     0          
C10      C      0.191090000000     0.119370000000     0.684280000000     0          
H11      H      0.109130000000     0.221770000000     0.706190000000     0          
H12      H      0.058200000000     0.165560000000     0.815100000000     0          
H13      H      0.267620000000     0.146490000000     0.572360000000     0          
H14      H      0.215120000000     0.089850000000     0.678070000000     0          
C16      C      0.250000000000     0.250000000000     0.623100000000     0          
O1       O      0.934530000000     0.894020000000     0.898000000000     0          
O2       O      0.897900000000     0.942410000000     0.780500000000     0          
C3       C      0.784820000000     0.780130000000     0.562610000000     0          
C4       C      0.810080000000     0.813000000000     0.630900000000     0          
C5       C      0.867210000000     0.807830000000     0.699230000000     0          
C6       C      0.895240000000     0.838690000000     0.758720000000     0          
C7       C      0.780220000000     0.849350000000     0.625230000000     0          
C8       C      0.900650000000     0.906850000000     0.813000000000     0          
C9       C      0.867080000000     0.875360000000     0.750690000000     0          
C10      C      0.808910000000     0.880630000000     0.684280000000     0          
H11      H      0.890870000000     0.778230000000     0.706190000000     0          
H12      H      0.941800000000     0.834440000000     0.815100000000     0          
H13      H      0.732380000000     0.853510000000     0.572360000000     0          
H14      H      0.784880000000     0.910150000000     0.678070000000     0          
C16      C      0.750000000000     0.750000000000     0.623100000000     0          
O1       O      0.065470000000     0.894020000000     0.102000000000     0          
O2       O      0.102100000000     0.942410000000     0.219500000000     0          
C3       C      0.215180000000     0.780130000000     0.437390000000     0          
C4       C      0.189920000000     0.813000000000     0.369100000000     0          
C5       C      0.132790000000     0.807830000000     0.300770000000     0          
C6       C      0.104760000000     0.838690000000     0.241280000000     0          
C7       C      0.219780000000     0.849350000000     0.374770000000     0          
C8       C      0.099350000000     0.906850000000     0.187000000000     0          
C9       C      0.132920000000     0.875360000000     0.249310000000     0          
C10      C      0.191090000000     0.880630000000     0.315720000000     0          
H11      H      0.109130000000     0.778230000000     0.293810000000     0          
H12      H      0.058200000000     0.834440000000     0.184900000000     0          
H13      H      0.267620000000     0.853510000000     0.427640000000     0          
H14      H      0.215120000000     0.910150000000     0.321930000000     0          
C16      C      0.250000000000     0.750000000000     0.376900000000     0          
O1       O      0.934530000000     0.105980000000     0.102000000000     0          
O2       O      0.897900000000     0.057590000000     0.219500000000     0          
C3       C      0.784820000000     0.219870000000     0.437390000000     0          
C4       C      0.810080000000     0.187000000000     0.369100000000     0          
C5       C      0.867210000000     0.192170000000     0.300770000000     0          
C6       C      0.895240000000     0.161310000000     0.241280000000     0          
C7       C      0.780220000000     0.150650000000     0.374770000000     0          
C8       C      0.900650000000     0.093150000000     0.187000000000     0          
C9       C      0.867080000000     0.124640000000     0.249310000000     0          
C10      C      0.808910000000     0.119370000000     0.315720000000     0          
H11      H      0.890870000000     0.221770000000     0.293810000000     0          
H12      H      0.941800000000     0.165560000000     0.184900000000     0          
H13      H      0.732380000000     0.146490000000     0.427640000000     0          
H14      H      0.784880000000     0.089850000000     0.321930000000     0          
C16      C      0.750000000000     0.250000000000     0.376900000000     0          
O1       O      0.434530000000     0.394020000000     0.102000000000     0          
O2       O      0.397900000000     0.442410000000     0.219500000000     0          
C3       C      0.284820000000     0.280130000000     0.437390000000     0          
C4       C      0.310080000000     0.313000000000     0.369100000000     0          
C5       C      0.367210000000     0.307830000000     0.300770000000     0          
C6       C      0.395240000000     0.338690000000     0.241280000000     0          
C7       C      0.280220000000     0.349350000000     0.374770000000     0          
C8       C      0.400650000000     0.406850000000     0.187000000000     0          
C9       C      0.367080000000     0.375360000000     0.249310000000     0          
C10      C      0.308910000000     0.380630000000     0.315720000000     0          
H11      H      0.390870000000     0.278230000000     0.293810000000     0          
H12      H      0.441800000000     0.334440000000     0.184900000000     0          
H13      H      0.232380000000     0.353510000000     0.427640000000     0          
H14      H      0.284880000000     0.410150000000     0.321930000000     0          
Zr15     Zr     0.000000000000     0.065680000000     0.000000000000     0          
Zr17     Zr     0.918870000000     0.000000000000     0.846500000000     0          
O18      O      0.814950000000     0.000000000000     0.871300000000     0          
O19      O      0.940700000000     0.000000000000     0.654000000000     0          
O20      O      0.896800000000     0.037140000000     0.000000000000     0          
O21      O      0.000000000000     0.039660000000     0.820700000000     0          
O1       O      0.565470000000     0.605980000000     0.102000000000     0          
O2       O      0.602100000000     0.557590000000     0.219500000000     0          
C3       C      0.715180000000     0.719870000000     0.437390000000     0          
C4       C      0.689920000000     0.687000000000     0.369100000000     0          
C5       C      0.632790000000     0.692170000000     0.300770000000     0          
C6       C      0.604760000000     0.661310000000     0.241280000000     0          
C7       C      0.719780000000     0.650650000000     0.374770000000     0          
C8       C      0.599350000000     0.593150000000     0.187000000000     0          
C9       C      0.632920000000     0.624640000000     0.249310000000     0          
C10      C      0.691090000000     0.619370000000     0.315720000000     0          
H11      H      0.609130000000     0.721770000000     0.293810000000     0          
H12      H      0.558200000000     0.665560000000     0.184900000000     0          
H13      H      0.767620000000     0.646490000000     0.427640000000     0          
H14      H      0.715120000000     0.589850000000     0.321930000000     0          
Zr15     Zr     0.000000000000     0.934320000000     0.000000000000     0          
Zr17     Zr     0.081130000000     0.000000000000     0.846500000000     0          
O18      O      0.185050000000     0.000000000000     0.871300000000     0          
O19      O      0.059300000000     0.000000000000     0.654000000000     0          
O20      O      0.103200000000     0.962860000000     0.000000000000     0          
O21      O      0.000000000000     0.960340000000     0.820700000000     0          
O1       O      0.434530000000     0.605980000000     0.898000000000     0          
O2       O      0.397900000000     0.557590000000     0.780500000000     0          
C3       C      0.284820000000     0.719870000000     0.562610000000     0          
C4       C      0.310080000000     0.687000000000     0.630900000000     0          
C5       C      0.367210000000     0.692170000000     0.699230000000     0          
C6       C      0.395240000000     0.661310000000     0.758720000000     0          
C7       C      0.280220000000     0.650650000000     0.625230000000     0          
C8       C      0.400650000000     0.593150000000     0.813000000000     0          
C9       C      0.367080000000     0.624640000000     0.750690000000     0          
C10      C      0.308910000000     0.619370000000     0.684280000000     0          
H11      H      0.390870000000     0.721770000000     0.706190000000     0          
H12      H      0.441800000000     0.665560000000     0.815100000000     0          
H13      H      0.232380000000     0.646490000000     0.572360000000     0          
H14      H      0.284880000000     0.589850000000     0.678070000000     0          
Zr17     Zr     0.918870000000     0.000000000000     0.153500000000     0          
O18      O      0.814950000000     0.000000000000     0.128700000000     0          
O19      O      0.940700000000     0.000000000000     0.346000000000     0          
O20      O      0.896800000000     0.962860000000     0.000000000000     0          
O21      O      0.000000000000     0.960340000000     0.179300000000     0          
O1       O      0.565470000000     0.394020000000     0.898000000000     0          
O2       O      0.602100000000     0.442410000000     0.780500000000     0          
C3       C      0.715180000000     0.280130000000     0.562610000000     0          
C4       C      0.689920000000     0.313000000000     0.630900000000     0          
C5       C      0.632790000000     0.307830000000     0.699230000000     0          
C6       C      0.604760000000     0.338690000000     0.758720000000     0          
C7       C      0.719780000000     0.349350000000     0.625230000000     0          
C8       C      0.599350000000     0.406850000000     0.813000000000     0          
C9       C      0.632920000000     0.375360000000     0.750690000000     0          
C10      C      0.691090000000     0.380630000000     0.684280000000     0          
H11      H      0.609130000000     0.278230000000     0.706190000000     0          
H12      H      0.558200000000     0.334440000000     0.815100000000     0          
H13      H      0.767620000000     0.353510000000     0.572360000000     0          
H14      H      0.715120000000     0.410150000000     0.678070000000     0          
Zr17     Zr     0.081130000000     0.000000000000     0.153500000000     0          
O18      O      0.185050000000     0.000000000000     0.128700000000     0          
O19      O      0.059300000000     0.000000000000     0.346000000000     0          
O20      O      0.103200000000     0.037140000000     0.000000000000     0          
O21      O      0.000000000000     0.039660000000     0.179300000000     0          
O1       O      0.565470000000     0.605980000000     0.898000000000     0          
O2       O      0.602100000000     0.557590000000     0.780500000000     0          
C3       C      0.715180000000     0.719870000000     0.562610000000     0          
C4       C      0.689920000000     0.687000000000     0.630900000000     0          
C5       C      0.632790000000     0.692170000000     0.699230000000     0          
C6       C      0.604760000000     0.661310000000     0.758720000000     0          
C7       C      0.719780000000     0.650650000000     0.625230000000     0          
C8       C      0.599350000000     0.593150000000     0.813000000000     0          
C9       C      0.632920000000     0.624640000000     0.750690000000     0          
C10      C      0.691090000000     0.619370000000     0.684280000000     0          
H11      H      0.609130000000     0.721770000000     0.706190000000     0          
H12      H      0.558200000000     0.665560000000     0.815100000000     0          
H13      H      0.767620000000     0.646490000000     0.572360000000     0          
H14      H      0.715120000000     0.589850000000     0.678070000000     0          
O1       O      0.434530000000     0.394020000000     0.898000000000     0          
O2       O      0.397900000000     0.442410000000     0.780500000000     0          
C3       C      0.284820000000     0.280130000000     0.562610000000     0          
C4       C      0.310080000000     0.313000000000     0.630900000000     0          
C5       C      0.367210000000     0.307830000000     0.699230000000     0          
C6       C      0.395240000000     0.338690000000     0.758720000000     0          
C7       C      0.280220000000     0.349350000000     0.625230000000     0          
C8       C      0.400650000000     0.406850000000     0.813000000000     0          
C9       C      0.367080000000     0.375360000000     0.750690000000     0          
C10      C      0.308910000000     0.380630000000     0.684280000000     0          
H11      H      0.390870000000     0.278230000000     0.706190000000     0          
H12      H      0.441800000000     0.334440000000     0.815100000000     0          
H13      H      0.232380000000     0.353510000000     0.572360000000     0          
H14      H      0.284880000000     0.410150000000     0.678070000000     0          
O1       O      0.565470000000     0.394020000000     0.102000000000     0          
O2       O      0.602100000000     0.442410000000     0.219500000000     0          
C3       C      0.715180000000     0.280130000000     0.437390000000     0          
C4       C      0.689920000000     0.313000000000     0.369100000000     0          
C5       C      0.632790000000     0.307830000000     0.300770000000     0          
C6       C      0.604760000000     0.338690000000     0.241280000000     0          
C7       C      0.719780000000     0.349350000000     0.374770000000     0          
C8       C      0.599350000000     0.406850000000     0.187000000000     0          
C9       C      0.632920000000     0.375360000000     0.249310000000     0          
C10      C      0.691090000000     0.380630000000     0.315720000000     0          
H11      H      0.609130000000     0.278230000000     0.293810000000     0          
H12      H      0.558200000000     0.334440000000     0.184900000000     0          
H13      H      0.767620000000     0.353510000000     0.427640000000     0          
H14      H      0.715120000000     0.410150000000     0.321930000000     0          
O1       O      0.434530000000     0.605980000000     0.102000000000     0          
O2       O      0.397900000000     0.557590000000     0.219500000000     0          
C3       C      0.284820000000     0.719870000000     0.437390000000     0          
C4       C      0.310080000000     0.687000000000     0.369100000000     0          
C5       C      0.367210000000     0.692170000000     0.300770000000     0          
C6       C      0.395240000000     0.661310000000     0.241280000000     0          
C7       C      0.280220000000     0.650650000000     0.374770000000     0          
C8       C      0.400650000000     0.593150000000     0.187000000000     0          
C9       C      0.367080000000     0.624640000000     0.249310000000     0          
C10      C      0.308910000000     0.619370000000     0.315720000000     0          
H11      H      0.390870000000     0.721770000000     0.293810000000     0          
H12      H      0.441800000000     0.665560000000     0.184900000000     0          
H13      H      0.232380000000     0.646490000000     0.427640000000     0          
H14      H      0.284880000000     0.589850000000     0.321930000000     0          


