data_JOZWIG01

_audit_creation_method RASPA-1.0
_audit_creation_date 2020-11-2
_audit_author_name 'Rocio Bueno-Perez'

_cell_length_a    25.4376
_cell_length_b    25.4376
_cell_length_c    25.4376
_cell_angle_alpha 90
_cell_angle_beta  90
_cell_angle_gamma 90
_cell_volume      16459.9

_symmetry_cell_setting          triclinic
_symmetry_space_group_name_Hall 'P 1'
_symmetry_space_group_name_H-M  'P 1'
_symmetry_Int_Tables_number     1

_symmetry_equiv_pos_as_xyz 'x,y,z'

loop_
_atom_site_label
_atom_site_type_symbol
_atom_site_fract_x
_atom_site_fract_y
_atom_site_fract_z
_atom_site_charge
C1       C      0.323200000000     0.961600000000     0.715100000000     0          
H2       H      0.325000000000     0.938000000000     0.744100000000     0          
C3       C      0.362400000000     0.955100000000     0.671700000000     0          
H4       H      0.384600000000     0.925400000000     0.667100000000     0          
C5       C      0.715100000000     0.323200000000     0.961600000000     0          
H6       H      0.744100000000     0.325000000000     0.938000000000     0          
C7       C      0.671700000000     0.362400000000     0.955100000000     0          
H8       H      0.667100000000     0.384600000000     0.925400000000     0          
C9       C      0.715100000000     0.676800000000     0.038400000000     0          
H10      H      0.744100000000     0.675000000000     0.062000000000     0          
C11      C      0.671700000000     0.637600000000     0.044900000000     0          
H12      H      0.667100000000     0.615400000000     0.074600000000     0          
C13      C      0.961600000000     0.715100000000     0.323200000000     0          
H14      H      0.938000000000     0.744100000000     0.325000000000     0          
C15      C      0.955100000000     0.671700000000     0.362400000000     0          
H16      H      0.925400000000     0.667100000000     0.384600000000     0          
C17      C      0.038400000000     0.676800000000     0.284900000000     0          
H18      H      0.062000000000     0.675000000000     0.255900000000     0          
C19      C      0.044900000000     0.637600000000     0.328300000000     0          
H20      H      0.074600000000     0.615400000000     0.332900000000     0          
C21      C      0.676800000000     0.715100000000     0.961600000000     0          
H22      H      0.675000000000     0.744100000000     0.938000000000     0          
C23      C      0.637600000000     0.671700000000     0.955100000000     0          
H24      H      0.615400000000     0.667100000000     0.925400000000     0          
C25      C      0.676800000000     0.284900000000     0.038400000000     0          
H26      H      0.675000000000     0.255900000000     0.062000000000     0          
C27      C      0.637600000000     0.328300000000     0.044900000000     0          
H28      H      0.615400000000     0.332900000000     0.074600000000     0          
C29      C      0.284900000000     0.038400000000     0.676800000000     0          
H30      H      0.255900000000     0.062000000000     0.675000000000     0          
C31      C      0.328300000000     0.044900000000     0.637600000000     0          
H32      H      0.332900000000     0.074600000000     0.615400000000     0          
C33      C      0.676800000000     0.038400000000     0.284900000000     0          
H34      H      0.675000000000     0.062000000000     0.255900000000     0          
C35      C      0.637600000000     0.044900000000     0.328300000000     0          
H36      H      0.615400000000     0.074600000000     0.332900000000     0          
C37      C      0.323200000000     0.961600000000     0.284900000000     0          
H38      H      0.325000000000     0.938000000000     0.255900000000     0          
C39      C      0.362400000000     0.955100000000     0.328300000000     0          
H40      H      0.384600000000     0.925400000000     0.332900000000     0          
C41      C      0.676800000000     0.961600000000     0.715100000000     0          
H42      H      0.675000000000     0.938000000000     0.744100000000     0          
C43      C      0.637600000000     0.955100000000     0.671700000000     0          
H44      H      0.615400000000     0.925400000000     0.667100000000     0          
C45      C      0.284900000000     0.676800000000     0.038400000000     0          
H46      H      0.255900000000     0.675000000000     0.062000000000     0          
C47      C      0.328300000000     0.637600000000     0.044900000000     0          
H48      H      0.332900000000     0.615400000000     0.074600000000     0          
C49      C      0.284900000000     0.323200000000     0.961600000000     0          
H50      H      0.255900000000     0.325000000000     0.938000000000     0          
C51      C      0.328300000000     0.362400000000     0.955100000000     0          
H52      H      0.332900000000     0.384600000000     0.925400000000     0          
C53      C      0.038400000000     0.284900000000     0.676800000000     0          
H54      H      0.062000000000     0.255900000000     0.675000000000     0          
C55      C      0.044900000000     0.328300000000     0.637600000000     0          
H56      H      0.074600000000     0.332900000000     0.615400000000     0          
C57      C      0.961600000000     0.284900000000     0.323200000000     0          
H58      H      0.938000000000     0.255900000000     0.325000000000     0          
C59      C      0.955100000000     0.328300000000     0.362400000000     0          
H60      H      0.925400000000     0.332900000000     0.384600000000     0          
C61      C      0.961600000000     0.715100000000     0.676800000000     0          
H62      H      0.938000000000     0.744100000000     0.675000000000     0          
C63      C      0.955100000000     0.671700000000     0.637600000000     0          
H64      H      0.925400000000     0.667100000000     0.615400000000     0          
C65      C      0.038400000000     0.676800000000     0.715100000000     0          
H66      H      0.062000000000     0.675000000000     0.744100000000     0          
C67      C      0.044900000000     0.637600000000     0.671700000000     0          
H68      H      0.074600000000     0.615400000000     0.667100000000     0          
C69      C      0.961600000000     0.323200000000     0.715100000000     0          
H70      H      0.938000000000     0.325000000000     0.744100000000     0          
C71      C      0.955100000000     0.362400000000     0.671700000000     0          
H72      H      0.925400000000     0.384600000000     0.667100000000     0          
C73      C      0.038400000000     0.323200000000     0.284900000000     0          
H74      H      0.062000000000     0.325000000000     0.255900000000     0          
C75      C      0.044900000000     0.362400000000     0.328300000000     0          
H76      H      0.074600000000     0.384600000000     0.332900000000     0          
C77      C      0.323200000000     0.284900000000     0.038400000000     0          
H78      H      0.325000000000     0.255900000000     0.062000000000     0          
C79      C      0.362400000000     0.328300000000     0.044900000000     0          
H80      H      0.384600000000     0.332900000000     0.074600000000     0          
C81      C      0.323200000000     0.715100000000     0.961600000000     0          
H82      H      0.325000000000     0.744100000000     0.938000000000     0          
C83      C      0.362400000000     0.671700000000     0.955100000000     0          
H84      H      0.384600000000     0.667100000000     0.925400000000     0          
C85      C      0.284900000000     0.038400000000     0.323200000000     0          
H86      H      0.255900000000     0.062000000000     0.325000000000     0          
C87      C      0.328300000000     0.044900000000     0.362400000000     0          
H88      H      0.332900000000     0.074600000000     0.384600000000     0          
C89      C      0.715100000000     0.038400000000     0.676800000000     0          
H90      H      0.744100000000     0.062000000000     0.675000000000     0          
C91      C      0.671700000000     0.044900000000     0.637600000000     0          
H92      H      0.667100000000     0.074600000000     0.615400000000     0          
C93      C      0.715100000000     0.961600000000     0.323200000000     0          
H94      H      0.744100000000     0.938000000000     0.325000000000     0          
C95      C      0.671700000000     0.955100000000     0.362400000000     0          
H96      H      0.667100000000     0.925400000000     0.384600000000     0          
Zr97     Zr     0.097420000000     0.000000000000     0.000000000000     0          
Zr98     Zr     0.902580000000     0.000000000000     0.000000000000     0          
Zr99     Zr     0.000000000000     0.097420000000     0.000000000000     0          
Zr100    Zr     0.000000000000     0.902580000000     0.000000000000     0          
Zr101    Zr     0.000000000000     0.000000000000     0.097420000000     0          
Zr102    Zr     0.000000000000     0.000000000000     0.902580000000     0          
O103     O      0.140530000000     0.000000000000     0.923790000000     0          
C104     C      0.216300000000     0.000000000000     0.846500000000     0          
H105     H      0.226000000000     0.000000000000     0.882600000000     0          
C106     C      0.256600000000     0.000000000000     0.808300000000     0          
H107     H      0.292500000000     0.000000000000     0.818800000000     0          
C108     C      0.456700000000     0.000000000000     0.612500000000     0          
C109     C      0.473800000000     0.000000000000     0.665000000000     0          
H110     H      0.451800000000     0.000000000000     0.695200000000     0          
O111     O      0.859470000000     0.000000000000     0.923790000000     0          
C112     C      0.783700000000     0.000000000000     0.846500000000     0          
H113     H      0.774000000000     0.000000000000     0.882600000000     0          
C114     C      0.743400000000     0.000000000000     0.808300000000     0          
H115     H      0.707500000000     0.000000000000     0.818800000000     0          
C116     C      0.543300000000     0.000000000000     0.612500000000     0          
C117     C      0.526200000000     0.000000000000     0.665000000000     0          
H118     H      0.548200000000     0.000000000000     0.695200000000     0          
O119     O      0.859470000000     0.000000000000     0.076210000000     0          
C120     C      0.783700000000     0.000000000000     0.153500000000     0          
H121     H      0.774000000000     0.000000000000     0.117400000000     0          
C122     C      0.743400000000     0.000000000000     0.191700000000     0          
H123     H      0.707500000000     0.000000000000     0.181200000000     0          
C124     C      0.543300000000     0.000000000000     0.387500000000     0          
C125     C      0.526200000000     0.000000000000     0.335000000000     0          
H126     H      0.548200000000     0.000000000000     0.304800000000     0          
O127     O      0.140530000000     0.000000000000     0.076210000000     0          
C128     C      0.216300000000     0.000000000000     0.153500000000     0          
H129     H      0.226000000000     0.000000000000     0.117400000000     0          
C130     C      0.256600000000     0.000000000000     0.191700000000     0          
H131     H      0.292500000000     0.000000000000     0.181200000000     0          
C132     C      0.456700000000     0.000000000000     0.387500000000     0          
C133     C      0.473800000000     0.000000000000     0.335000000000     0          
H134     H      0.451800000000     0.000000000000     0.304800000000     0          
O135     O      0.923790000000     0.140530000000     0.000000000000     0          
C136     C      0.846500000000     0.216300000000     0.000000000000     0          
H137     H      0.882600000000     0.226000000000     0.000000000000     0          
C138     C      0.808300000000     0.256600000000     0.000000000000     0          
H139     H      0.818800000000     0.292500000000     0.000000000000     0          
C140     C      0.612500000000     0.456700000000     0.000000000000     0          
C141     C      0.665000000000     0.473800000000     0.000000000000     0          
H142     H      0.695200000000     0.451800000000     0.000000000000     0          
O143     O      0.923790000000     0.859470000000     0.000000000000     0          
C144     C      0.846500000000     0.783700000000     0.000000000000     0          
H145     H      0.882600000000     0.774000000000     0.000000000000     0          
C146     C      0.808300000000     0.743400000000     0.000000000000     0          
H147     H      0.818800000000     0.707500000000     0.000000000000     0          
C148     C      0.612500000000     0.543300000000     0.000000000000     0          
C149     C      0.665000000000     0.526200000000     0.000000000000     0          
H150     H      0.695200000000     0.548200000000     0.000000000000     0          
O151     O      0.076210000000     0.859470000000     0.000000000000     0          
C152     C      0.153500000000     0.783700000000     0.000000000000     0          
H153     H      0.117400000000     0.774000000000     0.000000000000     0          
C154     C      0.191700000000     0.743400000000     0.000000000000     0          
H155     H      0.181200000000     0.707500000000     0.000000000000     0          
C156     C      0.387500000000     0.543300000000     0.000000000000     0          
C157     C      0.335000000000     0.526200000000     0.000000000000     0          
H158     H      0.304800000000     0.548200000000     0.000000000000     0          
O159     O      0.076210000000     0.140530000000     0.000000000000     0          
C160     C      0.153500000000     0.216300000000     0.000000000000     0          
H161     H      0.117400000000     0.226000000000     0.000000000000     0          
C162     C      0.191700000000     0.256600000000     0.000000000000     0          
H163     H      0.181200000000     0.292500000000     0.000000000000     0          
C164     C      0.387500000000     0.456700000000     0.000000000000     0          
C165     C      0.335000000000     0.473800000000     0.000000000000     0          
H166     H      0.304800000000     0.451800000000     0.000000000000     0          
O167     O      0.000000000000     0.923790000000     0.140530000000     0          
C168     C      0.000000000000     0.846500000000     0.216300000000     0          
H169     H      0.000000000000     0.882600000000     0.226000000000     0          
C170     C      0.000000000000     0.808300000000     0.256600000000     0          
H171     H      0.000000000000     0.818800000000     0.292500000000     0          
C172     C      0.000000000000     0.612500000000     0.456700000000     0          
C173     C      0.000000000000     0.665000000000     0.473800000000     0          
H174     H      0.000000000000     0.695200000000     0.451800000000     0          
O175     O      0.000000000000     0.923790000000     0.859470000000     0          
C176     C      0.000000000000     0.846500000000     0.783700000000     0          
H177     H      0.000000000000     0.882600000000     0.774000000000     0          
C178     C      0.000000000000     0.808300000000     0.743400000000     0          
H179     H      0.000000000000     0.818800000000     0.707500000000     0          
C180     C      0.000000000000     0.612500000000     0.543300000000     0          
C181     C      0.000000000000     0.665000000000     0.526200000000     0          
H182     H      0.000000000000     0.695200000000     0.548200000000     0          
O183     O      0.000000000000     0.076210000000     0.859470000000     0          
C184     C      0.000000000000     0.153500000000     0.783700000000     0          
H185     H      0.000000000000     0.117400000000     0.774000000000     0          
C186     C      0.000000000000     0.191700000000     0.743400000000     0          
H187     H      0.000000000000     0.181200000000     0.707500000000     0          
C188     C      0.000000000000     0.387500000000     0.543300000000     0          
C189     C      0.000000000000     0.335000000000     0.526200000000     0          
H190     H      0.000000000000     0.304800000000     0.548200000000     0          
O191     O      0.000000000000     0.076210000000     0.140530000000     0          
C192     C      0.000000000000     0.153500000000     0.216300000000     0          
H193     H      0.000000000000     0.117400000000     0.226000000000     0          
C194     C      0.000000000000     0.191700000000     0.256600000000     0          
H195     H      0.000000000000     0.181200000000     0.292500000000     0          
C196     C      0.000000000000     0.387500000000     0.456700000000     0          
C197     C      0.000000000000     0.335000000000     0.473800000000     0          
H198     H      0.000000000000     0.304800000000     0.451800000000     0          
O199     O      0.000000000000     0.140530000000     0.076210000000     0          
C200     C      0.000000000000     0.216300000000     0.153500000000     0          
H201     H      0.000000000000     0.226000000000     0.117400000000     0          
C202     C      0.000000000000     0.256600000000     0.191700000000     0          
H203     H      0.000000000000     0.292500000000     0.181200000000     0          
C204     C      0.000000000000     0.456700000000     0.387500000000     0          
C205     C      0.000000000000     0.473800000000     0.335000000000     0          
H206     H      0.000000000000     0.451800000000     0.304800000000     0          
O207     O      0.000000000000     0.859470000000     0.076210000000     0          
C208     C      0.000000000000     0.783700000000     0.153500000000     0          
H209     H      0.000000000000     0.774000000000     0.117400000000     0          
C210     C      0.000000000000     0.743400000000     0.191700000000     0          
H211     H      0.000000000000     0.707500000000     0.181200000000     0          
C212     C      0.000000000000     0.543300000000     0.387500000000     0          
C213     C      0.000000000000     0.526200000000     0.335000000000     0          
H214     H      0.000000000000     0.548200000000     0.304800000000     0          
O215     O      0.000000000000     0.859470000000     0.923790000000     0          
C216     C      0.000000000000     0.783700000000     0.846500000000     0          
H217     H      0.000000000000     0.774000000000     0.882600000000     0          
C218     C      0.000000000000     0.743400000000     0.808300000000     0          
H219     H      0.000000000000     0.707500000000     0.818800000000     0          
C220     C      0.000000000000     0.543300000000     0.612500000000     0          
C221     C      0.000000000000     0.526200000000     0.665000000000     0          
H222     H      0.000000000000     0.548200000000     0.695200000000     0          
O223     O      0.000000000000     0.140530000000     0.923790000000     0          
C224     C      0.000000000000     0.216300000000     0.846500000000     0          
H225     H      0.000000000000     0.226000000000     0.882600000000     0          
C226     C      0.000000000000     0.256600000000     0.808300000000     0          
H227     H      0.000000000000     0.292500000000     0.818800000000     0          
C228     C      0.000000000000     0.456700000000     0.612500000000     0          
C229     C      0.000000000000     0.473800000000     0.665000000000     0          
H230     H      0.000000000000     0.451800000000     0.695200000000     0          
O231     O      0.140530000000     0.923790000000     0.000000000000     0          
C232     C      0.216300000000     0.846500000000     0.000000000000     0          
H233     H      0.226000000000     0.882600000000     0.000000000000     0          
C234     C      0.256600000000     0.808300000000     0.000000000000     0          
H235     H      0.292500000000     0.818800000000     0.000000000000     0          
C236     C      0.456700000000     0.612500000000     0.000000000000     0          
C237     C      0.473800000000     0.665000000000     0.000000000000     0          
H238     H      0.451800000000     0.695200000000     0.000000000000     0          
O239     O      0.859470000000     0.923790000000     0.000000000000     0          
C240     C      0.783700000000     0.846500000000     0.000000000000     0          
H241     H      0.774000000000     0.882600000000     0.000000000000     0          
C242     C      0.743400000000     0.808300000000     0.000000000000     0          
H243     H      0.707500000000     0.818800000000     0.000000000000     0          
C244     C      0.543300000000     0.612500000000     0.000000000000     0          
C245     C      0.526200000000     0.665000000000     0.000000000000     0          
H246     H      0.548200000000     0.695200000000     0.000000000000     0          
O247     O      0.859470000000     0.076210000000     0.000000000000     0          
C248     C      0.783700000000     0.153500000000     0.000000000000     0          
H249     H      0.774000000000     0.117400000000     0.000000000000     0          
C250     C      0.743400000000     0.191700000000     0.000000000000     0          
H251     H      0.707500000000     0.181200000000     0.000000000000     0          
C252     C      0.543300000000     0.387500000000     0.000000000000     0          
C253     C      0.526200000000     0.335000000000     0.000000000000     0          
H254     H      0.548200000000     0.304800000000     0.000000000000     0          
O255     O      0.140530000000     0.076210000000     0.000000000000     0          
C256     C      0.216300000000     0.153500000000     0.000000000000     0          
H257     H      0.226000000000     0.117400000000     0.000000000000     0          
C258     C      0.256600000000     0.191700000000     0.000000000000     0          
H259     H      0.292500000000     0.181200000000     0.000000000000     0          
C260     C      0.456700000000     0.387500000000     0.000000000000     0          
C261     C      0.473800000000     0.335000000000     0.000000000000     0          
H262     H      0.451800000000     0.304800000000     0.000000000000     0          
O263     O      0.923790000000     0.000000000000     0.859470000000     0          
C264     C      0.846500000000     0.000000000000     0.783700000000     0          
H265     H      0.882600000000     0.000000000000     0.774000000000     0          
C266     C      0.808300000000     0.000000000000     0.743400000000     0          
H267     H      0.818800000000     0.000000000000     0.707500000000     0          
C268     C      0.612500000000     0.000000000000     0.543300000000     0          
C269     C      0.665000000000     0.000000000000     0.526200000000     0          
H270     H      0.695200000000     0.000000000000     0.548200000000     0          
O271     O      0.923790000000     0.000000000000     0.140530000000     0          
C272     C      0.846500000000     0.000000000000     0.216300000000     0          
H273     H      0.882600000000     0.000000000000     0.226000000000     0          
C274     C      0.808300000000     0.000000000000     0.256600000000     0          
H275     H      0.818800000000     0.000000000000     0.292500000000     0          
C276     C      0.612500000000     0.000000000000     0.456700000000     0          
C277     C      0.665000000000     0.000000000000     0.473800000000     0          
H278     H      0.695200000000     0.000000000000     0.451800000000     0          
O279     O      0.076210000000     0.000000000000     0.140530000000     0          
C280     C      0.153500000000     0.000000000000     0.216300000000     0          
H281     H      0.117400000000     0.000000000000     0.226000000000     0          
C282     C      0.191700000000     0.000000000000     0.256600000000     0          
H283     H      0.181200000000     0.000000000000     0.292500000000     0          
C284     C      0.387500000000     0.000000000000     0.456700000000     0          
C285     C      0.335000000000     0.000000000000     0.473800000000     0          
H286     H      0.304800000000     0.000000000000     0.451800000000     0          
O287     O      0.076210000000     0.000000000000     0.859470000000     0          
C288     C      0.153500000000     0.000000000000     0.783700000000     0          
H289     H      0.117400000000     0.000000000000     0.774000000000     0          
C290     C      0.191700000000     0.000000000000     0.743400000000     0          
H291     H      0.181200000000     0.000000000000     0.707500000000     0          
C292     C      0.387500000000     0.000000000000     0.543300000000     0          
C293     C      0.335000000000     0.000000000000     0.526200000000     0          
H294     H      0.304800000000     0.000000000000     0.548200000000     0          
O295     O      0.047990000000     0.047990000000     0.047990000000     0          
O296     O      0.952010000000     0.952010000000     0.047990000000     0          
O297     O      0.952010000000     0.047990000000     0.952010000000     0          
O298     O      0.047990000000     0.952010000000     0.952010000000     0          
O299     O      0.047990000000     0.047990000000     0.952010000000     0          
O300     O      0.952010000000     0.952010000000     0.952010000000     0          
O301     O      0.047990000000     0.952010000000     0.047990000000     0          
O302     O      0.952010000000     0.047990000000     0.047990000000     0          
N303     N      0.500000000000     0.000000000000     0.579900000000     0          
N304     N      0.500000000000     0.000000000000     0.420100000000     0          
N305     N      0.579900000000     0.500000000000     0.000000000000     0          
N306     N      0.420100000000     0.500000000000     0.000000000000     0          
N307     N      0.000000000000     0.579900000000     0.500000000000     0          
N308     N      0.000000000000     0.420100000000     0.500000000000     0          
N309     N      0.000000000000     0.500000000000     0.420100000000     0          
N310     N      0.000000000000     0.500000000000     0.579900000000     0          
N311     N      0.500000000000     0.579900000000     0.000000000000     0          
N312     N      0.500000000000     0.420100000000     0.000000000000     0          
N313     N      0.579900000000     0.000000000000     0.500000000000     0          
N314     N      0.420100000000     0.000000000000     0.500000000000     0          
C315     C      0.124090000000     0.000000000000     0.875910000000     0          
C316     C      0.165780000000     0.000000000000     0.834220000000     0          
C317     C      0.243590000000     0.000000000000     0.756410000000     0          
C318     C      0.284300000000     0.000000000000     0.715700000000     0          
C319     C      0.361400000000     0.000000000000     0.638600000000     0          
C320     C      0.404000000000     0.000000000000     0.596000000000     0          
C321     C      0.875910000000     0.000000000000     0.875910000000     0          
C322     C      0.834220000000     0.000000000000     0.834220000000     0          
C323     C      0.756410000000     0.000000000000     0.756410000000     0          
C324     C      0.715700000000     0.000000000000     0.715700000000     0          
C325     C      0.638600000000     0.000000000000     0.638600000000     0          
C326     C      0.596000000000     0.000000000000     0.596000000000     0          
C327     C      0.875910000000     0.000000000000     0.124090000000     0          
C328     C      0.834220000000     0.000000000000     0.165780000000     0          
C329     C      0.756410000000     0.000000000000     0.243590000000     0          
C330     C      0.715700000000     0.000000000000     0.284300000000     0          
C331     C      0.638600000000     0.000000000000     0.361400000000     0          
C332     C      0.596000000000     0.000000000000     0.404000000000     0          
C333     C      0.124090000000     0.000000000000     0.124090000000     0          
C334     C      0.165780000000     0.000000000000     0.165780000000     0          
C335     C      0.243590000000     0.000000000000     0.243590000000     0          
C336     C      0.284300000000     0.000000000000     0.284300000000     0          
C337     C      0.361400000000     0.000000000000     0.361400000000     0          
C338     C      0.404000000000     0.000000000000     0.404000000000     0          
C339     C      0.875910000000     0.124090000000     0.000000000000     0          
C340     C      0.834220000000     0.165780000000     0.000000000000     0          
C341     C      0.756410000000     0.243590000000     0.000000000000     0          
C342     C      0.715700000000     0.284300000000     0.000000000000     0          
C343     C      0.638600000000     0.361400000000     0.000000000000     0          
C344     C      0.596000000000     0.404000000000     0.000000000000     0          
C345     C      0.875910000000     0.875910000000     0.000000000000     0          
C346     C      0.834220000000     0.834220000000     0.000000000000     0          
C347     C      0.756410000000     0.756410000000     0.000000000000     0          
C348     C      0.715700000000     0.715700000000     0.000000000000     0          
C349     C      0.638600000000     0.638600000000     0.000000000000     0          
C350     C      0.596000000000     0.596000000000     0.000000000000     0          
C351     C      0.124090000000     0.875910000000     0.000000000000     0          
C352     C      0.165780000000     0.834220000000     0.000000000000     0          
C353     C      0.243590000000     0.756410000000     0.000000000000     0          
C354     C      0.284300000000     0.715700000000     0.000000000000     0          
C355     C      0.361400000000     0.638600000000     0.000000000000     0          
C356     C      0.404000000000     0.596000000000     0.000000000000     0          
C357     C      0.124090000000     0.124090000000     0.000000000000     0          
C358     C      0.165780000000     0.165780000000     0.000000000000     0          
C359     C      0.243590000000     0.243590000000     0.000000000000     0          
C360     C      0.284300000000     0.284300000000     0.000000000000     0          
C361     C      0.361400000000     0.361400000000     0.000000000000     0          
C362     C      0.404000000000     0.404000000000     0.000000000000     0          
C363     C      0.000000000000     0.875910000000     0.124090000000     0          
C364     C      0.000000000000     0.834220000000     0.165780000000     0          
C365     C      0.000000000000     0.756410000000     0.243590000000     0          
C366     C      0.000000000000     0.715700000000     0.284300000000     0          
C367     C      0.000000000000     0.638600000000     0.361400000000     0          
C368     C      0.000000000000     0.596000000000     0.404000000000     0          
C369     C      0.000000000000     0.875910000000     0.875910000000     0          
C370     C      0.000000000000     0.834220000000     0.834220000000     0          
C371     C      0.000000000000     0.756410000000     0.756410000000     0          
C372     C      0.000000000000     0.715700000000     0.715700000000     0          
C373     C      0.000000000000     0.638600000000     0.638600000000     0          
C374     C      0.000000000000     0.596000000000     0.596000000000     0          
C375     C      0.000000000000     0.124090000000     0.875910000000     0          
C376     C      0.000000000000     0.165780000000     0.834220000000     0          
C377     C      0.000000000000     0.243590000000     0.756410000000     0          
C378     C      0.000000000000     0.284300000000     0.715700000000     0          
C379     C      0.000000000000     0.361400000000     0.638600000000     0          
C380     C      0.000000000000     0.404000000000     0.596000000000     0          
C381     C      0.000000000000     0.124090000000     0.124090000000     0          
C382     C      0.000000000000     0.165780000000     0.165780000000     0          
C383     C      0.000000000000     0.243590000000     0.243590000000     0          
C384     C      0.000000000000     0.284300000000     0.284300000000     0          
C385     C      0.000000000000     0.361400000000     0.361400000000     0          
C386     C      0.000000000000     0.404000000000     0.404000000000     0          


