data_KEGKUF

_audit_creation_method RASPA-1.0
_audit_creation_date 2020-11-2
_audit_author_name 'Rocio Bueno-Perez'

_cell_length_a    17.7506
_cell_length_b    17.7506
_cell_length_c    22.4863
_cell_angle_alpha 90
_cell_angle_beta  90
_cell_angle_gamma 90
_cell_volume      7085.07

_symmetry_cell_setting          triclinic
_symmetry_space_group_name_Hall 'P 1'
_symmetry_space_group_name_H-M  'P 1'
_symmetry_Int_Tables_number     1

_symmetry_equiv_pos_as_xyz 'x,y,z'

loop_
_atom_site_label
_atom_site_type_symbol
_atom_site_fract_x
_atom_site_fract_y
_atom_site_fract_z
_atom_site_charge
C1       C      0.623800000000     0.622400000000     0.643700000000     0          
C2       C      0.665100000000     0.663400000000     0.690500000000     0          
C3       C      0.716900000000     0.716500000000     0.676300000000     0          
H4       H      0.725800000000     0.726700000000     0.635500000000     0          
C5       C      0.741700000000     0.742800000000     0.781100000000     0          
C6       C      0.689000000000     0.687400000000     0.797200000000     0          
C7       C      0.650700000000     0.649400000000     0.749300000000     0          
H8       H      0.613600000000     0.612800000000     0.759000000000     0          
O9       O      0.388300000000     0.500200000000     0.559800000000     0          
O10      O      0.639200000000     0.638000000000     0.590700000000     0          
O11      O      0.574800000000     0.574300000000     0.661100000000     0          
O12      O      0.416400000000     0.500800000000     0.544100000000     0          
C13      C      0.123800000000     0.122400000000     0.143700000000     0          
C14      C      0.165100000000     0.163400000000     0.190500000000     0          
C15      C      0.216900000000     0.216500000000     0.176300000000     0          
H16      H      0.225800000000     0.226700000000     0.135500000000     0          
C17      C      0.241700000000     0.242800000000     0.281100000000     0          
C18      C      0.189000000000     0.187400000000     0.297200000000     0          
C19      C      0.150700000000     0.149400000000     0.249300000000     0          
H20      H      0.113600000000     0.112800000000     0.259000000000     0          
O21      O      0.888300000000     0.000200000000     0.059800000000     0          
O22      O      0.139200000000     0.138000000000     0.090700000000     0          
O23      O      0.074800000000     0.074300000000     0.161100000000     0          
O24      O      0.916400000000     0.000800000000     0.044100000000     0          
C25      C      0.376200000000     0.377600000000     0.643700000000     0          
C26      C      0.334900000000     0.336600000000     0.690500000000     0          
C27      C      0.283100000000     0.283500000000     0.676300000000     0          
H28      H      0.274200000000     0.273300000000     0.635500000000     0          
C29      C      0.258300000000     0.257200000000     0.781100000000     0          
C30      C      0.311000000000     0.312600000000     0.797200000000     0          
C31      C      0.349300000000     0.350600000000     0.749300000000     0          
H32      H      0.386400000000     0.387200000000     0.759000000000     0          
O33      O      0.611700000000     0.499800000000     0.559800000000     0          
O34      O      0.360800000000     0.362000000000     0.590700000000     0          
O35      O      0.425200000000     0.425700000000     0.661100000000     0          
S36      S      0.333000000000     0.333400000000     0.873200000000     0          
O37      O      0.392800000000     0.391200000000     0.867600000000     0          
O38      O      0.272000000000     0.354200000000     0.899700000000     0          
O39      O      0.583600000000     0.499200000000     0.544100000000     0          
O40      O      0.382000000000     0.270000000000     0.864000000000     0          
C41      C      0.876200000000     0.877600000000     0.143700000000     0          
C42      C      0.834900000000     0.836600000000     0.190500000000     0          
C43      C      0.783100000000     0.783500000000     0.176300000000     0          
H44      H      0.774200000000     0.773300000000     0.135500000000     0          
C45      C      0.758300000000     0.757200000000     0.281100000000     0          
C46      C      0.811000000000     0.812600000000     0.297200000000     0          
C47      C      0.849300000000     0.850600000000     0.249300000000     0          
H48      H      0.886400000000     0.887200000000     0.259000000000     0          
O49      O      0.111700000000     0.999800000000     0.059800000000     0          
O50      O      0.860800000000     0.862000000000     0.090700000000     0          
O51      O      0.925200000000     0.925700000000     0.161100000000     0          
S52      S      0.833000000000     0.833400000000     0.373200000000     0          
O53      O      0.855300000000     0.766600000000     0.397900000000     0          
O54      O      0.892800000000     0.891200000000     0.367600000000     0          
O55      O      0.083600000000     0.999200000000     0.044100000000     0          
O56      O      0.768000000000     0.884000000000     0.364000000000     0          
C57      C      0.377600000000     0.623800000000     0.643700000000     0          
C58      C      0.336600000000     0.665100000000     0.690500000000     0          
C59      C      0.283500000000     0.716900000000     0.676300000000     0          
H60      H      0.273300000000     0.725800000000     0.635500000000     0          
C61      C      0.257200000000     0.741700000000     0.781100000000     0          
C62      C      0.312600000000     0.689000000000     0.797200000000     0          
C63      C      0.350600000000     0.650700000000     0.749300000000     0          
H64      H      0.387200000000     0.613600000000     0.759000000000     0          
O65      O      0.499800000000     0.388300000000     0.559800000000     0          
O66      O      0.362000000000     0.639200000000     0.590700000000     0          
O67      O      0.425700000000     0.574800000000     0.661100000000     0          
S68      S      0.333400000000     0.667000000000     0.873200000000     0          
O69      O      0.266600000000     0.644700000000     0.897900000000     0          
O70      O      0.391200000000     0.607200000000     0.867600000000     0          
O71      O      0.499200000000     0.416400000000     0.544100000000     0          
O72      O      0.384000000000     0.732000000000     0.864000000000     0          
C73      C      0.877600000000     0.123800000000     0.143700000000     0          
C74      C      0.836600000000     0.165100000000     0.190500000000     0          
C75      C      0.783500000000     0.216900000000     0.176300000000     0          
H76      H      0.773300000000     0.225800000000     0.135500000000     0          
C77      C      0.757200000000     0.241700000000     0.281100000000     0          
C78      C      0.812600000000     0.189000000000     0.297200000000     0          
C79      C      0.850600000000     0.150700000000     0.249300000000     0          
H80      H      0.887200000000     0.113600000000     0.259000000000     0          
O81      O      0.999800000000     0.888300000000     0.059800000000     0          
O82      O      0.862000000000     0.139200000000     0.090700000000     0          
O83      O      0.925700000000     0.074800000000     0.161100000000     0          
S84      S      0.833400000000     0.167000000000     0.373200000000     0          
O85      O      0.766600000000     0.144700000000     0.397900000000     0          
O86      O      0.891200000000     0.107200000000     0.367600000000     0          
O87      O      0.854200000000     0.228000000000     0.399700000000     0          
O88      O      0.999200000000     0.916400000000     0.044100000000     0          
C89      C      0.622400000000     0.376200000000     0.643700000000     0          
C90      C      0.663400000000     0.334900000000     0.690500000000     0          
C91      C      0.716500000000     0.283100000000     0.676300000000     0          
H92      H      0.726700000000     0.274200000000     0.635500000000     0          
C93      C      0.742800000000     0.258300000000     0.781100000000     0          
C94      C      0.687400000000     0.311000000000     0.797200000000     0          
C95      C      0.649400000000     0.349300000000     0.749300000000     0          
H96      H      0.612800000000     0.386400000000     0.759000000000     0          
O97      O      0.500200000000     0.611700000000     0.559800000000     0          
O98      O      0.638000000000     0.360800000000     0.590700000000     0          
O99      O      0.574300000000     0.425200000000     0.661100000000     0          
O100     O      0.500800000000     0.583600000000     0.544100000000     0          
C101     C      0.122400000000     0.876200000000     0.143700000000     0          
C102     C      0.163400000000     0.834900000000     0.190500000000     0          
C103     C      0.216500000000     0.783100000000     0.176300000000     0          
H104     H      0.226700000000     0.774200000000     0.135500000000     0          
C105     C      0.242800000000     0.758300000000     0.281100000000     0          
C106     C      0.187400000000     0.811000000000     0.297200000000     0          
C107     C      0.149400000000     0.849300000000     0.249300000000     0          
H108     H      0.112800000000     0.886400000000     0.259000000000     0          
O109     O      0.000200000000     0.111700000000     0.059800000000     0          
O110     O      0.138000000000     0.860800000000     0.090700000000     0          
O111     O      0.074300000000     0.925200000000     0.161100000000     0          
O112     O      0.000800000000     0.083600000000     0.044100000000     0          
C113     C      0.376200000000     0.377600000000     0.356300000000     0          
C114     C      0.334900000000     0.336600000000     0.309500000000     0          
C115     C      0.283100000000     0.283500000000     0.323700000000     0          
H116     H      0.274200000000     0.273300000000     0.364500000000     0          
C117     C      0.258300000000     0.257200000000     0.218900000000     0          
C118     C      0.311000000000     0.312600000000     0.202800000000     0          
C119     C      0.349300000000     0.350600000000     0.250700000000     0          
H120     H      0.386400000000     0.387200000000     0.241000000000     0          
O121     O      0.611700000000     0.499800000000     0.440200000000     0          
O122     O      0.360800000000     0.362000000000     0.409300000000     0          
O123     O      0.425200000000     0.425700000000     0.338900000000     0          
S124     S      0.333000000000     0.333400000000     0.126800000000     0          
O125     O      0.355300000000     0.266600000000     0.102100000000     0          
O126     O      0.392800000000     0.391200000000     0.132400000000     0          
O127     O      0.583600000000     0.499200000000     0.455900000000     0          
O128     O      0.268000000000     0.384000000000     0.136000000000     0          
C129     C      0.876200000000     0.877600000000     0.856300000000     0          
C130     C      0.834900000000     0.836600000000     0.809500000000     0          
C131     C      0.783100000000     0.783500000000     0.823700000000     0          
H132     H      0.774200000000     0.773300000000     0.864500000000     0          
C133     C      0.758300000000     0.757200000000     0.718900000000     0          
C134     C      0.811000000000     0.812600000000     0.702800000000     0          
C135     C      0.849300000000     0.850600000000     0.750700000000     0          
H136     H      0.886400000000     0.887200000000     0.741000000000     0          
O137     O      0.111700000000     0.999800000000     0.940200000000     0          
O138     O      0.860800000000     0.862000000000     0.909300000000     0          
O139     O      0.925200000000     0.925700000000     0.838900000000     0          
S140     S      0.833000000000     0.833400000000     0.626800000000     0          
O141     O      0.892800000000     0.891200000000     0.632400000000     0          
O142     O      0.772000000000     0.854200000000     0.600300000000     0          
O143     O      0.083600000000     0.999200000000     0.955900000000     0          
O144     O      0.882000000000     0.770000000000     0.636000000000     0          
C145     C      0.623800000000     0.622400000000     0.356300000000     0          
C146     C      0.665100000000     0.663400000000     0.309500000000     0          
C147     C      0.716900000000     0.716500000000     0.323700000000     0          
H148     H      0.725800000000     0.726700000000     0.364500000000     0          
C149     C      0.741700000000     0.742800000000     0.218900000000     0          
C150     C      0.689000000000     0.687400000000     0.202800000000     0          
C151     C      0.650700000000     0.649400000000     0.250700000000     0          
H152     H      0.613600000000     0.612800000000     0.241000000000     0          
O153     O      0.388300000000     0.500200000000     0.440200000000     0          
O154     O      0.639200000000     0.638000000000     0.409300000000     0          
O155     O      0.574800000000     0.574300000000     0.338900000000     0          
O156     O      0.416400000000     0.500800000000     0.455900000000     0          
C157     C      0.123800000000     0.122400000000     0.856300000000     0          
C158     C      0.165100000000     0.163400000000     0.809500000000     0          
C159     C      0.216900000000     0.216500000000     0.823700000000     0          
H160     H      0.225800000000     0.226700000000     0.864500000000     0          
C161     C      0.241700000000     0.242800000000     0.718900000000     0          
C162     C      0.189000000000     0.187400000000     0.702800000000     0          
C163     C      0.150700000000     0.149400000000     0.750700000000     0          
H164     H      0.113600000000     0.112800000000     0.741000000000     0          
O165     O      0.888300000000     0.000200000000     0.940200000000     0          
O166     O      0.139200000000     0.138000000000     0.909300000000     0          
O167     O      0.074800000000     0.074300000000     0.838900000000     0          
O168     O      0.916400000000     0.000800000000     0.955900000000     0          
C169     C      0.622400000000     0.376200000000     0.356300000000     0          
C170     C      0.663400000000     0.334900000000     0.309500000000     0          
C171     C      0.716500000000     0.283100000000     0.323700000000     0          
H172     H      0.726700000000     0.274200000000     0.364500000000     0          
C173     C      0.742800000000     0.258300000000     0.218900000000     0          
C174     C      0.687400000000     0.311000000000     0.202800000000     0          
C175     C      0.649400000000     0.349300000000     0.250700000000     0          
H176     H      0.612800000000     0.386400000000     0.241000000000     0          
O177     O      0.500200000000     0.611700000000     0.440200000000     0          
O178     O      0.638000000000     0.360800000000     0.409300000000     0          
O179     O      0.574300000000     0.425200000000     0.338900000000     0          
O180     O      0.500800000000     0.583600000000     0.455900000000     0          
C181     C      0.122400000000     0.876200000000     0.856300000000     0          
C182     C      0.163400000000     0.834900000000     0.809500000000     0          
C183     C      0.216500000000     0.783100000000     0.823700000000     0          
H184     H      0.226700000000     0.774200000000     0.864500000000     0          
C185     C      0.242800000000     0.758300000000     0.718900000000     0          
C186     C      0.187400000000     0.811000000000     0.702800000000     0          
C187     C      0.149400000000     0.849300000000     0.750700000000     0          
H188     H      0.112800000000     0.886400000000     0.741000000000     0          
O189     O      0.000200000000     0.111700000000     0.940200000000     0          
O190     O      0.138000000000     0.860800000000     0.909300000000     0          
O191     O      0.074300000000     0.925200000000     0.838900000000     0          
O192     O      0.000800000000     0.083600000000     0.955900000000     0          
C193     C      0.377600000000     0.623800000000     0.356300000000     0          
C194     C      0.336600000000     0.665100000000     0.309500000000     0          
C195     C      0.283500000000     0.716900000000     0.323700000000     0          
H196     H      0.273300000000     0.725800000000     0.364500000000     0          
C197     C      0.257200000000     0.741700000000     0.218900000000     0          
C198     C      0.312600000000     0.689000000000     0.202800000000     0          
C199     C      0.350600000000     0.650700000000     0.250700000000     0          
H200     H      0.387200000000     0.613600000000     0.241000000000     0          
O201     O      0.499800000000     0.388300000000     0.440200000000     0          
O202     O      0.362000000000     0.639200000000     0.409300000000     0          
O203     O      0.425700000000     0.574800000000     0.338900000000     0          
S204     S      0.333400000000     0.667000000000     0.126800000000     0          
O205     O      0.266600000000     0.644700000000     0.102100000000     0          
O206     O      0.391200000000     0.607200000000     0.132400000000     0          
O207     O      0.499200000000     0.416400000000     0.455900000000     0          
O208     O      0.384000000000     0.732000000000     0.136000000000     0          
C209     C      0.877600000000     0.123800000000     0.856300000000     0          
C210     C      0.836600000000     0.165100000000     0.809500000000     0          
C211     C      0.783500000000     0.216900000000     0.823700000000     0          
H212     H      0.773300000000     0.225800000000     0.864500000000     0          
C213     C      0.757200000000     0.241700000000     0.718900000000     0          
C214     C      0.812600000000     0.189000000000     0.702800000000     0          
C215     C      0.850600000000     0.150700000000     0.750700000000     0          
H216     H      0.887200000000     0.113600000000     0.741000000000     0          
O217     O      0.999800000000     0.888300000000     0.940200000000     0          
O218     O      0.862000000000     0.139200000000     0.909300000000     0          
O219     O      0.925700000000     0.074800000000     0.838900000000     0          
S220     S      0.833400000000     0.167000000000     0.626800000000     0          
O221     O      0.891200000000     0.107200000000     0.632400000000     0          
O222     O      0.854200000000     0.228000000000     0.600300000000     0          
O223     O      0.999200000000     0.916400000000     0.955900000000     0          
O224     O      0.770000000000     0.118000000000     0.636000000000     0          
Zr225    Zr     0.400180000000     0.400340000000     0.500000000000     0          
Zr226    Zr     0.900180000000     0.900340000000     0.000000000000     0          
Zr227    Zr     0.599820000000     0.599660000000     0.500000000000     0          
Zr228    Zr     0.099820000000     0.099660000000     0.000000000000     0          
Zr229    Zr     0.599660000000     0.400180000000     0.500000000000     0          
Zr230    Zr     0.099660000000     0.900180000000     0.000000000000     0          
Zr231    Zr     0.400340000000     0.599820000000     0.500000000000     0          
Zr232    Zr     0.900340000000     0.099820000000     0.000000000000     0          
Zr233    Zr     0.500000000000     0.500000000000     0.608990000000     0          
Zr234    Zr     0.000000000000     0.000000000000     0.108990000000     0          
Zr235    Zr     0.500000000000     0.500000000000     0.391010000000     0          
Zr236    Zr     0.000000000000     0.000000000000     0.891010000000     0          
H237     H      0.174480000000     0.821640000000     0.653850000000     0          
H238     H      0.678360000000     0.674480000000     0.846150000000     0          
H239     H      0.174480000000     0.821640000000     0.346150000000     0          
H240     H      0.678360000000     0.674480000000     0.153850000000     0          
H241     H      0.178360000000     0.174480000000     0.653850000000     0          
H242     H      0.674480000000     0.321640000000     0.846150000000     0          
H243     H      0.178360000000     0.174480000000     0.346150000000     0          
H244     H      0.674480000000     0.321640000000     0.153850000000     0          


