data_KINGUM

_audit_creation_method RASPA-1.0
_audit_creation_date 2020-4-3
_audit_author_name 'Rocio Bueno-Perez'

_cell_length_a    14.713
_cell_length_b    14.713
_cell_length_c    36.9794
_cell_angle_alpha 90
_cell_angle_beta  90
_cell_angle_gamma 120
_cell_volume      6932.55

_symmetry_cell_setting          hexagonal
_symmetry_space_group_name_Hall 'P 1'
_symmetry_space_group_name_H-M  'P 1'
_symmetry_Int_Tables_number     1

_symmetry_equiv_pos_as_xyz 'x,y,z'

loop_
_atom_site_label
_atom_site_type_symbol
_atom_site_fract_x
_atom_site_fract_y
_atom_site_fract_z
_atom_site_charge
H1       H      0.674810000000     0.617740000000     0.471500000000     0          
H2       H      0.558310000000     0.696380000000     0.297240000000     0          
H3       H      0.770080000000     0.796510000000     0.389080000000     0          
H4       H      0.666670000000     0.333330000000     0.430090000000     0          
H5       H      0.793900000000     0.587810000000     0.305440000000     0          
H6       H      0.887950000000     0.298840000000     0.250000000000     0          
C1       C      0.565700000000     0.434300000000     0.435420000000     0          
C2       C      0.531710000000     0.468290000000     0.468370000000     0          
C3       C      0.598350000000     0.566710000000     0.484120000000     0          
C4       C      0.665050000000     0.635190000000     0.341150000000     0          
C5       C      0.664320000000     0.736130000000     0.342990000000     0          
C6       C      0.605110000000     0.756290000000     0.317580000000     0          
C7       C      0.724220000000     0.812810000000     0.369270000000     0          
O1       O      0.656910000000     0.498310000000     0.422700000000     0          
O2       O      0.721210000000     0.621800000000     0.364940000000     0          
O3       O      0.612300000000     0.571230000000     0.315530000000     0          
O4       O      0.666670000000     0.333330000000     0.403470000000     0          
O5       O      0.601480000000     0.398520000000     0.353200000000     0          
O6       O      0.757010000000     0.514030000000     0.312470000000     0          
O7       O      0.666670000000     0.333330000000     0.287480000000     0          
O8       O      0.864370000000     0.349780000000     0.250000000000     0          
Zr1      Zr     0.745310000000     0.490620000000     0.375000000000     0          
Zr2      Zr     0.829020000000     0.414510000000     0.297550000000     0          
H1F      H      0.617740000000     0.674810000000     0.528500000000     0          
C1L      C      0.434300000000     0.565700000000     0.564580000000     0          
C2L      C      0.468290000000     0.531710000000     0.531630000000     0          
C3F      C      0.566710000000     0.598350000000     0.515880000000     0          
O1F      O      0.498310000000     0.656910000000     0.577300000000     0          
H1R      H      0.382260000000     0.325190000000     0.471500000000     0          
C3R      C      0.433290000000     0.401650000000     0.484120000000     0          
O1R      O      0.501690000000     0.343090000000     0.422700000000     0          
H1L      H      0.325190000000     0.382260000000     0.528500000000     0          
C3L      C      0.401650000000     0.433290000000     0.515880000000     0          
O1L      O      0.343090000000     0.501690000000     0.577300000000     0          
H2T      H      0.558310000000     0.861930000000     0.297240000000     0          
H3T      H      0.770080000000     0.973580000000     0.389080000000     0          
C4T      C      0.665050000000     0.029860000000     0.341150000000     0          
C5T      C      0.664320000000     0.928190000000     0.342990000000     0          
C6T      C      0.605110000000     0.848820000000     0.317580000000     0          
C7T      C      0.724220000000     0.911410000000     0.369270000000     0          
O2T      O      0.721210000000     0.099410000000     0.364940000000     0          
O3T      O      0.612300000000     0.041060000000     0.315530000000     0          
H2L      H      0.441690000000     0.303620000000     0.702760000000     0          
H3L      H      0.229920000000     0.203490000000     0.610920000000     0          
H4L      H      0.333330000000     0.666670000000     0.569910000000     0          
H5L      H      0.206100000000     0.412190000000     0.694560000000     0          
H6L      H      0.112050000000     0.701150000000     0.750000000000     0          
C4L      C      0.334950000000     0.364810000000     0.658850000000     0          
C5L      C      0.335680000000     0.263870000000     0.657010000000     0          
C6L      C      0.394890000000     0.243710000000     0.682420000000     0          
C7L      C      0.275780000000     0.187190000000     0.630730000000     0          
O2L      O      0.278790000000     0.378200000000     0.635060000000     0          
O3L      O      0.387700000000     0.428770000000     0.684470000000     0          
O4L      O      0.333330000000     0.666670000000     0.596530000000     0          
O5L      O      0.398520000000     0.601480000000     0.646800000000     0          
O6L      O      0.242990000000     0.485970000000     0.687530000000     0          
O7L      O      0.333330000000     0.666670000000     0.712520000000     0          
O8L      O      0.135630000000     0.650220000000     0.750000000000     0          
Zr1L     Zr     0.254690000000     0.509380000000     0.625000000000     0          
Zr2L     Zr     0.170980000000     0.585490000000     0.702450000000     0          
H2H      H      0.441690000000     0.138070000000     0.702760000000     0          
H3H      H      0.229920000000     0.026420000000     0.610920000000     0          
C4H      C      0.334950000000     0.970140000000     0.658850000000     0          
C5H      C      0.335680000000     0.071810000000     0.657010000000     0          
C6H      C      0.394890000000     0.151180000000     0.682420000000     0          
C7H      C      0.275780000000     0.088590000000     0.630730000000     0          
O2H      O      0.278790000000     0.900590000000     0.635060000000     0          
O3H      O      0.387700000000     0.958940000000     0.684470000000     0          
H1A      H      0.382260000000     0.057070000000     0.471500000000     0          
H2A      H      0.303620000000     0.861930000000     0.297240000000     0          
H3A      H      0.203490000000     0.973580000000     0.389080000000     0          
H5A      H      0.412190000000     0.206100000000     0.305440000000     0          
H6A      H      0.701150000000     0.589110000000     0.250000000000     0          
C1A      C      0.565700000000     0.131390000000     0.435420000000     0          
C2A      C      0.531710000000     0.063430000000     0.468370000000     0          
C3A      C      0.433290000000     0.031640000000     0.484120000000     0          
C4A      C      0.364810000000     0.029860000000     0.341150000000     0          
C5A      C      0.263870000000     0.928190000000     0.342990000000     0          
C6A      C      0.243710000000     0.848820000000     0.317580000000     0          
C7A      C      0.187190000000     0.911410000000     0.369270000000     0          
O1A      O      0.501690000000     0.158600000000     0.422700000000     0          
O2A      O      0.378200000000     0.099410000000     0.364940000000     0          
O3A      O      0.428770000000     0.041060000000     0.315530000000     0          
O5A      O      0.601480000000     0.202960000000     0.353200000000     0          
O6A      O      0.485970000000     0.242990000000     0.312470000000     0          
O8A      O      0.650220000000     0.514590000000     0.250000000000     0          
Zr1A     Zr     0.509380000000     0.254690000000     0.375000000000     0          
Zr2A     Zr     0.585490000000     0.414510000000     0.297550000000     0          
H1H      H      0.325190000000     0.942930000000     0.528500000000     0          
C1M      C      0.434300000000     0.868610000000     0.564580000000     0          
C2M      C      0.468290000000     0.936570000000     0.531630000000     0          
C3H      C      0.401650000000     0.968360000000     0.515880000000     0          
O1H      O      0.343090000000     0.841400000000     0.577300000000     0          
H1T      H      0.674810000000     0.057070000000     0.471500000000     0          
C3T      C      0.598350000000     0.031640000000     0.484120000000     0          
O1T      O      0.656910000000     0.158600000000     0.422700000000     0          
H1M      H      0.617740000000     0.942930000000     0.528500000000     0          
C3M      C      0.566710000000     0.968360000000     0.515880000000     0          
O1M      O      0.498310000000     0.841400000000     0.577300000000     0          
H2S      H      0.138070000000     0.696380000000     0.297240000000     0          
H3S      H      0.026420000000     0.796510000000     0.389080000000     0          
C4S      C      0.970140000000     0.635190000000     0.341150000000     0          
C5S      C      0.071810000000     0.736130000000     0.342990000000     0          
C6S      C      0.151180000000     0.756290000000     0.317580000000     0          
C7S      C      0.088590000000     0.812810000000     0.369270000000     0          
O2S      O      0.900590000000     0.621800000000     0.364940000000     0          
O3S      O      0.958940000000     0.571230000000     0.315530000000     0          
H2M      H      0.696380000000     0.138070000000     0.702760000000     0          
H3M      H      0.796510000000     0.026420000000     0.610920000000     0          
H5M      H      0.587810000000     0.793900000000     0.694560000000     0          
H6M      H      0.298840000000     0.410890000000     0.750000000000     0          
C4M      C      0.635190000000     0.970140000000     0.658850000000     0          
C5M      C      0.736130000000     0.071810000000     0.657010000000     0          
C6M      C      0.756290000000     0.151180000000     0.682420000000     0          
C7M      C      0.812810000000     0.088590000000     0.630730000000     0          
O2M      O      0.621800000000     0.900590000000     0.635060000000     0          
O3M      O      0.571230000000     0.958940000000     0.684470000000     0          
O5M      O      0.398520000000     0.797040000000     0.646800000000     0          
O6M      O      0.514030000000     0.757010000000     0.687530000000     0          
O8M      O      0.349780000000     0.485410000000     0.750000000000     0          
Zr1M     Zr     0.490620000000     0.745310000000     0.625000000000     0          
Zr2M     Zr     0.414510000000     0.585490000000     0.702450000000     0          
H2G      H      0.861930000000     0.303620000000     0.702760000000     0          
H3G      H      0.973580000000     0.203490000000     0.610920000000     0          
C4G      C      0.029860000000     0.364810000000     0.658850000000     0          
C5G      C      0.928190000000     0.263870000000     0.657010000000     0          
C6G      C      0.848820000000     0.243710000000     0.682420000000     0          
C7G      C      0.911410000000     0.187190000000     0.630730000000     0          
O2G      O      0.099410000000     0.378200000000     0.635060000000     0          
O3G      O      0.041060000000     0.428770000000     0.684470000000     0          
H1B      H      0.942930000000     0.325190000000     0.471500000000     0          
H2B      H      0.138070000000     0.441690000000     0.297240000000     0          
H3B      H      0.026420000000     0.229920000000     0.389080000000     0          
H5B      H      0.793900000000     0.206100000000     0.305440000000     0          
H6B      H      0.410890000000     0.112050000000     0.250000000000     0          
C1B      C      0.868610000000     0.434300000000     0.435420000000     0          
C2B      C      0.936570000000     0.468290000000     0.468370000000     0          
C3B      C      0.968360000000     0.401650000000     0.484120000000     0          
C4B      C      0.970140000000     0.334950000000     0.341150000000     0          
C5B      C      0.071810000000     0.335680000000     0.342990000000     0          
C6B      C      0.151180000000     0.394890000000     0.317580000000     0          
C7B      C      0.088590000000     0.275780000000     0.369270000000     0          
O1B      O      0.841400000000     0.343090000000     0.422700000000     0          
O2B      O      0.900590000000     0.278790000000     0.364940000000     0          
O3B      O      0.958940000000     0.387700000000     0.315530000000     0          
O5B      O      0.797040000000     0.398520000000     0.353200000000     0          
O6B      O      0.757010000000     0.242990000000     0.312470000000     0          
O8B      O      0.485410000000     0.135630000000     0.250000000000     0          
Zr1B     Zr     0.745310000000     0.254690000000     0.375000000000     0          
Zr2B     Zr     0.585490000000     0.170980000000     0.297550000000     0          
H1G      H      0.057070000000     0.382260000000     0.528500000000     0          
C1N      C      0.131390000000     0.565700000000     0.564580000000     0          
C2N      C      0.063430000000     0.531710000000     0.531630000000     0          
C3G      C      0.031640000000     0.433290000000     0.515880000000     0          
O1G      O      0.158600000000     0.501690000000     0.577300000000     0          
H1S      H      0.942930000000     0.617740000000     0.471500000000     0          
C3S      C      0.968360000000     0.566710000000     0.484120000000     0          
O1S      O      0.841400000000     0.498310000000     0.422700000000     0          
H1N      H      0.057070000000     0.674810000000     0.528500000000     0          
C3N      C      0.031640000000     0.598350000000     0.515880000000     0          
O1N      O      0.158600000000     0.656910000000     0.577300000000     0          
H2R      H      0.303620000000     0.441690000000     0.297240000000     0          
H3R      H      0.203490000000     0.229920000000     0.389080000000     0          
C4R      C      0.364810000000     0.334950000000     0.341150000000     0          
C5R      C      0.263870000000     0.335680000000     0.342990000000     0          
C6R      C      0.243710000000     0.394890000000     0.317580000000     0          
C7R      C      0.187190000000     0.275780000000     0.369270000000     0          
O2R      O      0.378200000000     0.278790000000     0.364940000000     0          
O3R      O      0.428770000000     0.387700000000     0.315530000000     0          
H2N      H      0.861930000000     0.558310000000     0.702760000000     0          
H3N      H      0.973580000000     0.770080000000     0.610920000000     0          
H5N      H      0.206100000000     0.793900000000     0.694560000000     0          
H6N      H      0.589110000000     0.887950000000     0.750000000000     0          
C4N      C      0.029860000000     0.665050000000     0.658850000000     0          
C5N      C      0.928190000000     0.664320000000     0.657010000000     0          
C6N      C      0.848820000000     0.605110000000     0.682420000000     0          
C7N      C      0.911410000000     0.724220000000     0.630730000000     0          
O2N      O      0.099410000000     0.721210000000     0.635060000000     0          
O3N      O      0.041060000000     0.612300000000     0.684470000000     0          
O5N      O      0.202960000000     0.601480000000     0.646800000000     0          
O6N      O      0.242990000000     0.757010000000     0.687530000000     0          
O8N      O      0.514590000000     0.864370000000     0.750000000000     0          
Zr1N     Zr     0.254690000000     0.745310000000     0.625000000000     0          
Zr2N     Zr     0.414510000000     0.829020000000     0.702450000000     0          
H2F      H      0.696380000000     0.558310000000     0.702760000000     0          
H3F      H      0.796510000000     0.770080000000     0.610920000000     0          
C4F      C      0.635190000000     0.665050000000     0.658850000000     0          
C5F      C      0.736130000000     0.664320000000     0.657010000000     0          
C6F      C      0.756290000000     0.605110000000     0.682420000000     0          
C7F      C      0.812810000000     0.724220000000     0.630730000000     0          
O2F      O      0.621800000000     0.721210000000     0.635060000000     0          
O3F      O      0.571230000000     0.612300000000     0.684470000000     0          
O8F      O      0.349780000000     0.864370000000     0.750000000000     0          
O8R      O      0.650220000000     0.135630000000     0.250000000000     0          
O8G      O      0.514590000000     0.650220000000     0.750000000000     0          
O8S      O      0.485410000000     0.349780000000     0.250000000000     0          
O8H      O      0.135630000000     0.485410000000     0.750000000000     0          
O8T      O      0.864370000000     0.514590000000     0.250000000000     0          
Zr2C     Zr     0.170980000000     0.585490000000     0.797550000000     0          
Zr2O     Zr     0.829020000000     0.414510000000     0.202450000000     0          
Zr2D     Zr     0.414510000000     0.585490000000     0.797550000000     0          
Zr2P     Zr     0.585490000000     0.414510000000     0.202450000000     0          
Zr2E     Zr     0.414510000000     0.829020000000     0.797550000000     0          
Zr2Q     Zr     0.585490000000     0.170980000000     0.202450000000     0          
H1       H      0.057070000000     0.674810000000     0.971500000000     0          
H2       H      0.861930000000     0.558310000000     0.797240000000     0          
H3       H      0.973570000000     0.770080000000     0.889080000000     0          
H4       H      0.333340000000     0.666670000000     0.930090000000     0          
H5       H      0.206090000000     0.793900000000     0.805440000000     0          
C1       C      0.131400000000     0.565700000000     0.935420000000     0          
C2       C      0.063420000000     0.531710000000     0.968370000000     0          
C3       C      0.031640000000     0.598350000000     0.984120000000     0          
C4       C      0.029860000000     0.665050000000     0.841150000000     0          
C5       C      0.928190000000     0.664320000000     0.842990000000     0          
C6       C      0.848820000000     0.605110000000     0.817580000000     0          
C7       C      0.911410000000     0.724220000000     0.869270000000     0          
O1       O      0.158600000000     0.656910000000     0.922700000000     0          
O2       O      0.099410000000     0.721210000000     0.864940000000     0          
O3       O      0.041070000000     0.612300000000     0.815530000000     0          
O4       O      0.333340000000     0.666670000000     0.903470000000     0          
O5       O      0.202960000000     0.601480000000     0.853200000000     0          
O6       O      0.242980000000     0.757010000000     0.812470000000     0          
O7       O      0.333340000000     0.666670000000     0.787480000000     0          
Zr1      Zr     0.254690000000     0.745310000000     0.875000000000     0          
H1F      H      0.942930000000     0.617740000000     0.028500000000     0          
C1L      C      0.868600000000     0.434300000000     0.064580000000     0          
C2L      C      0.936580000000     0.468290000000     0.031630000000     0          
C3F      C      0.968360000000     0.566710000000     0.015880000000     0          
O1F      O      0.841400000000     0.498310000000     0.077300000000     0          
H1R      H      0.057070000000     0.382260000000     0.971500000000     0          
C3R      C      0.031640000000     0.433290000000     0.984120000000     0          
O1R      O      0.158600000000     0.501690000000     0.922700000000     0          
H1L      H      0.942930000000     0.325190000000     0.028500000000     0          
C3L      C      0.968360000000     0.401650000000     0.015880000000     0          
O1L      O      0.841400000000     0.343090000000     0.077300000000     0          
H2T      H      0.696380000000     0.558310000000     0.797240000000     0          
H3T      H      0.796500000000     0.770080000000     0.889080000000     0          
C4T      C      0.635190000000     0.665050000000     0.841150000000     0          
C5T      C      0.736130000000     0.664320000000     0.842990000000     0          
C6T      C      0.756290000000     0.605110000000     0.817580000000     0          
C7T      C      0.812810000000     0.724220000000     0.869270000000     0          
O2T      O      0.621800000000     0.721210000000     0.864940000000     0          
O3T      O      0.571240000000     0.612300000000     0.815530000000     0          
H2L      H      0.138070000000     0.441690000000     0.202760000000     0          
H3L      H      0.026430000000     0.229920000000     0.110920000000     0          
H4L      H      0.666660000000     0.333330000000     0.069910000000     0          
H5L      H      0.793910000000     0.206100000000     0.194560000000     0          
C4L      C      0.970140000000     0.334950000000     0.158850000000     0          
C5L      C      0.071810000000     0.335680000000     0.157010000000     0          
C6L      C      0.151180000000     0.394890000000     0.182420000000     0          
C7L      C      0.088590000000     0.275780000000     0.130730000000     0          
O2L      O      0.900590000000     0.278790000000     0.135060000000     0          
O3L      O      0.958930000000     0.387700000000     0.184470000000     0          
O4L      O      0.666660000000     0.333330000000     0.096530000000     0          
O5L      O      0.797040000000     0.398520000000     0.146800000000     0          
O6L      O      0.757020000000     0.242990000000     0.187530000000     0          
O7L      O      0.666660000000     0.333330000000     0.212520000000     0          
Zr1L     Zr     0.745310000000     0.254690000000     0.125000000000     0          
H2H      H      0.303620000000     0.441690000000     0.202760000000     0          
H3H      H      0.203500000000     0.229920000000     0.110920000000     0          
C4H      C      0.364810000000     0.334950000000     0.158850000000     0          
C5H      C      0.263870000000     0.335680000000     0.157010000000     0          
C6H      C      0.243710000000     0.394890000000     0.182420000000     0          
C7H      C      0.187190000000     0.275780000000     0.130730000000     0          
O2H      O      0.378200000000     0.278790000000     0.135060000000     0          
O3H      O      0.428760000000     0.387700000000     0.184470000000     0          
H1A      H      0.325190000000     0.382260000000     0.971500000000     0          
H2A      H      0.441690000000     0.303620000000     0.797240000000     0          
H3A      H      0.229910000000     0.203490000000     0.889080000000     0          
H5A      H      0.206090000000     0.412190000000     0.805440000000     0          
C1A      C      0.434310000000     0.565700000000     0.935420000000     0          
C2A      C      0.468280000000     0.531710000000     0.968370000000     0          
C3A      C      0.401650000000     0.433290000000     0.984120000000     0          
C4A      C      0.334950000000     0.364810000000     0.841150000000     0          
C5A      C      0.335680000000     0.263870000000     0.842990000000     0          
C6A      C      0.394890000000     0.243710000000     0.817580000000     0          
C7A      C      0.275780000000     0.187190000000     0.869270000000     0          
O1A      O      0.343090000000     0.501690000000     0.922700000000     0          
O2A      O      0.278790000000     0.378200000000     0.864940000000     0          
O3A      O      0.387710000000     0.428770000000     0.815530000000     0          
O5A      O      0.398520000000     0.601480000000     0.853200000000     0          
O6A      O      0.242980000000     0.485970000000     0.812470000000     0          
Zr1A     Zr     0.254690000000     0.509380000000     0.875000000000     0          
H1H      H      0.382260000000     0.325190000000     0.028500000000     0          
C1M      C      0.565690000000     0.434300000000     0.064580000000     0          
C2M      C      0.531720000000     0.468290000000     0.031630000000     0          
C3H      C      0.433290000000     0.401650000000     0.015880000000     0          
O1H      O      0.501690000000     0.343090000000     0.077300000000     0          
H1T      H      0.617740000000     0.674810000000     0.971500000000     0          
C3T      C      0.566710000000     0.598350000000     0.984120000000     0          
O1T      O      0.498310000000     0.656910000000     0.922700000000     0          
H1M      H      0.674810000000     0.617740000000     0.028500000000     0          
C3M      C      0.598350000000     0.566710000000     0.015880000000     0          
O1M      O      0.656910000000     0.498310000000     0.077300000000     0          
H2S      H      0.441690000000     0.138070000000     0.797240000000     0          
H3S      H      0.229910000000     0.026420000000     0.889080000000     0          
C4S      C      0.334950000000     0.970140000000     0.841150000000     0          
C5S      C      0.335680000000     0.071810000000     0.842990000000     0          
C6S      C      0.394890000000     0.151180000000     0.817580000000     0          
C7S      C      0.275780000000     0.088590000000     0.869270000000     0          
O2S      O      0.278790000000     0.900590000000     0.864940000000     0          
O3S      O      0.387710000000     0.958940000000     0.815530000000     0          
H2M      H      0.558310000000     0.696380000000     0.202760000000     0          
H3M      H      0.770090000000     0.796510000000     0.110920000000     0          
H5M      H      0.793910000000     0.587810000000     0.194560000000     0          
C4M      C      0.665050000000     0.635190000000     0.158850000000     0          
C5M      C      0.664320000000     0.736130000000     0.157010000000     0          
C6M      C      0.605110000000     0.756290000000     0.182420000000     0          
C7M      C      0.724220000000     0.812810000000     0.130730000000     0          
O2M      O      0.721210000000     0.621800000000     0.135060000000     0          
O3M      O      0.612290000000     0.571230000000     0.184470000000     0          
O5M      O      0.601480000000     0.398520000000     0.146800000000     0          
O6M      O      0.757020000000     0.514030000000     0.187530000000     0          
Zr1M     Zr     0.745310000000     0.490620000000     0.125000000000     0          
H2G      H      0.558310000000     0.861930000000     0.202760000000     0          
H3G      H      0.770090000000     0.973580000000     0.110920000000     0          
C4G      C      0.665050000000     0.029860000000     0.158850000000     0          
C5G      C      0.664320000000     0.928190000000     0.157010000000     0          
C6G      C      0.605110000000     0.848820000000     0.182420000000     0          
C7G      C      0.724220000000     0.911410000000     0.130730000000     0          
O2G      O      0.721210000000     0.099410000000     0.135060000000     0          
O3G      O      0.612290000000     0.041060000000     0.184470000000     0          
H1B      H      0.617740000000     0.942930000000     0.971500000000     0          
H2B      H      0.696380000000     0.138070000000     0.797240000000     0          
H3B      H      0.796500000000     0.026420000000     0.889080000000     0          
H5B      H      0.587800000000     0.793900000000     0.805440000000     0          
C1B      C      0.434310000000     0.868610000000     0.935420000000     0          
C2B      C      0.468280000000     0.936570000000     0.968370000000     0          
C3B      C      0.566710000000     0.968360000000     0.984120000000     0          
C4B      C      0.635190000000     0.970140000000     0.841150000000     0          
C5B      C      0.736130000000     0.071810000000     0.842990000000     0          
C6B      C      0.756290000000     0.151180000000     0.817580000000     0          
C7B      C      0.812810000000     0.088590000000     0.869270000000     0          
O1B      O      0.498310000000     0.841400000000     0.922700000000     0          
O2B      O      0.621800000000     0.900590000000     0.864940000000     0          
O3B      O      0.571240000000     0.958940000000     0.815530000000     0          
O5B      O      0.398520000000     0.797040000000     0.853200000000     0          
O6B      O      0.514020000000     0.757010000000     0.812470000000     0          
Zr1B     Zr     0.490620000000     0.745310000000     0.875000000000     0          
H1G      H      0.674810000000     0.057070000000     0.028500000000     0          
C1N      C      0.565690000000     0.131390000000     0.064580000000     0          
C2N      C      0.531720000000     0.063430000000     0.031630000000     0          
C3G      C      0.598350000000     0.031640000000     0.015880000000     0          
O1G      O      0.656910000000     0.158600000000     0.077300000000     0          
H1S      H      0.325190000000     0.942930000000     0.971500000000     0          
C3S      C      0.401650000000     0.968360000000     0.984120000000     0          
O1S      O      0.343090000000     0.841400000000     0.922700000000     0          
H1N      H      0.382260000000     0.057070000000     0.028500000000     0          
C3N      C      0.433290000000     0.031640000000     0.015880000000     0          
O1N      O      0.501690000000     0.158600000000     0.077300000000     0          
H2R      H      0.861930000000     0.303620000000     0.797240000000     0          
H3R      H      0.973570000000     0.203490000000     0.889080000000     0          
C4R      C      0.029860000000     0.364810000000     0.841150000000     0          
C5R      C      0.928190000000     0.263870000000     0.842990000000     0          
C6R      C      0.848820000000     0.243710000000     0.817580000000     0          
C7R      C      0.911410000000     0.187190000000     0.869270000000     0          
O2R      O      0.099410000000     0.378200000000     0.864940000000     0          
O3R      O      0.041070000000     0.428770000000     0.815530000000     0          
H2N      H      0.303620000000     0.861930000000     0.202760000000     0          
H3N      H      0.203500000000     0.973580000000     0.110920000000     0          
H5N      H      0.412200000000     0.206100000000     0.194560000000     0          
C4N      C      0.364810000000     0.029860000000     0.158850000000     0          
C5N      C      0.263870000000     0.928190000000     0.157010000000     0          
C6N      C      0.243710000000     0.848820000000     0.182420000000     0          
C7N      C      0.187190000000     0.911410000000     0.130730000000     0          
O2N      O      0.378200000000     0.099410000000     0.135060000000     0          
O3N      O      0.428760000000     0.041060000000     0.184470000000     0          
O5N      O      0.601480000000     0.202960000000     0.146800000000     0          
O6N      O      0.485980000000     0.242990000000     0.187530000000     0          
Zr1N     Zr     0.509380000000     0.254690000000     0.125000000000     0          
H2F      H      0.138070000000     0.696380000000     0.202760000000     0          
H3F      H      0.026430000000     0.796510000000     0.110920000000     0          
C4F      C      0.970140000000     0.635190000000     0.158850000000     0          
C5F      C      0.071810000000     0.736130000000     0.157010000000     0          
C6F      C      0.151180000000     0.756290000000     0.182420000000     0          
C7F      C      0.088590000000     0.812810000000     0.130730000000     0          
O2F      O      0.900590000000     0.621800000000     0.135060000000     0          
O3F      O      0.958930000000     0.571230000000     0.184470000000     0          
H6       H      0.701160000000     0.112050000000     0.250000000000     0          
H6L      H      0.298850000000     0.887950000000     0.750000000000     0          
H6A      H      0.410890000000     0.298850000000     0.250000000000     0          
H6M      H      0.589110000000     0.701160000000     0.750000000000     0          
H6B      H      0.887950000000     0.589110000000     0.250000000000     0          
H6N      H      0.112050000000     0.410890000000     0.750000000000     0          


