data_LOBDUE

_audit_creation_method RASPA-1.0
_audit_creation_date 2020-11-2
_audit_author_name 'Rocio Bueno-Perez'

_cell_length_a    24.104
_cell_length_b    24.104
_cell_length_c    14.856
_cell_angle_alpha 90
_cell_angle_beta  90
_cell_angle_gamma 90
_cell_volume      8631.38

_symmetry_cell_setting          triclinic
_symmetry_space_group_name_Hall 'P 1'
_symmetry_space_group_name_H-M  'P 1'
_symmetry_Int_Tables_number     1

_symmetry_equiv_pos_as_xyz 'x,y,z'

loop_
_atom_site_label
_atom_site_type_symbol
_atom_site_fract_x
_atom_site_fract_y
_atom_site_fract_z
_atom_site_charge
O1       O      0.445400000000     0.149000000000     0.088600000000     0          
C2       C      0.406500000000     0.132200000000     0.142200000000     0          
O3       O      0.395600000000     0.081700000000     0.166400000000     0          
C4       C      0.369100000000     0.173600000000     0.176100000000     0          
C5       C      0.370900000000     0.226100000000     0.140000000000     0          
C6       C      0.328700000000     0.159700000000     0.239900000000     0          
H7       H      0.397900000000     0.234900000000     0.097600000000     0          
C8       C      0.332900000000     0.265900000000     0.166000000000     0          
C9       C      0.287500000000     0.200900000000     0.264100000000     0          
H10      H      0.328300000000     0.124700000000     0.266300000000     0          
C11      C      0.338900000000     0.326900000000     0.119400000000     0          
C12      C      0.292600000000     0.252800000000     0.231200000000     0          
H13      H      0.258100000000     0.191700000000     0.301800000000     0          
H14      H      0.351700000000     0.353100000000     0.163300000000     0          
H15      H      0.303400000000     0.338500000000     0.096700000000     0          
H16      H      0.365000000000     0.324900000000     0.070700000000     0          
O17      O      0.554600000000     0.851000000000     0.088600000000     0          
C18      C      0.593500000000     0.867800000000     0.142200000000     0          
O19      O      0.604400000000     0.918300000000     0.166400000000     0          
C20      C      0.630900000000     0.826400000000     0.176100000000     0          
C21      C      0.629100000000     0.773900000000     0.140000000000     0          
C22      C      0.671300000000     0.840300000000     0.239900000000     0          
H23      H      0.602100000000     0.765100000000     0.097600000000     0          
C24      C      0.667100000000     0.734100000000     0.166000000000     0          
C25      C      0.712500000000     0.799100000000     0.264100000000     0          
H26      H      0.671700000000     0.875300000000     0.266300000000     0          
C27      C      0.661100000000     0.673100000000     0.119400000000     0          
C28      C      0.707400000000     0.747200000000     0.231200000000     0          
H29      H      0.741900000000     0.808300000000     0.301800000000     0          
H30      H      0.648300000000     0.646900000000     0.163300000000     0          
H31      H      0.696600000000     0.661500000000     0.096700000000     0          
H32      H      0.635000000000     0.675100000000     0.070700000000     0          
O33      O      0.851000000000     0.445400000000     0.588600000000     0          
C34      C      0.867800000000     0.406500000000     0.642200000000     0          
O35      O      0.918300000000     0.395600000000     0.666400000000     0          
C36      C      0.826400000000     0.369100000000     0.676100000000     0          
C37      C      0.773900000000     0.370900000000     0.640000000000     0          
C38      C      0.840300000000     0.328700000000     0.739900000000     0          
H39      H      0.765100000000     0.397900000000     0.597600000000     0          
C40      C      0.734100000000     0.332900000000     0.666000000000     0          
C41      C      0.799100000000     0.287500000000     0.764100000000     0          
H42      H      0.875300000000     0.328300000000     0.766300000000     0          
C43      C      0.673100000000     0.338900000000     0.619400000000     0          
C44      C      0.747200000000     0.292600000000     0.731200000000     0          
H45      H      0.808300000000     0.258100000000     0.801800000000     0          
H46      H      0.646900000000     0.351700000000     0.663300000000     0          
H47      H      0.661500000000     0.303400000000     0.596700000000     0          
H48      H      0.675100000000     0.365000000000     0.570700000000     0          
O49      O      0.149000000000     0.554600000000     0.588600000000     0          
C50      C      0.132200000000     0.593500000000     0.642200000000     0          
O51      O      0.081700000000     0.604400000000     0.666400000000     0          
C52      C      0.173600000000     0.630900000000     0.676100000000     0          
C53      C      0.226100000000     0.629100000000     0.640000000000     0          
C54      C      0.159700000000     0.671300000000     0.739900000000     0          
H55      H      0.234900000000     0.602100000000     0.597600000000     0          
C56      C      0.265900000000     0.667100000000     0.666000000000     0          
C57      C      0.200900000000     0.712500000000     0.764100000000     0          
H58      H      0.124700000000     0.671700000000     0.766300000000     0          
C59      C      0.326900000000     0.661100000000     0.619400000000     0          
C60      C      0.252800000000     0.707400000000     0.731200000000     0          
H61      H      0.191700000000     0.741900000000     0.801800000000     0          
H62      H      0.353100000000     0.648300000000     0.663300000000     0          
H63      H      0.338500000000     0.696600000000     0.596700000000     0          
H64      H      0.324900000000     0.635000000000     0.570700000000     0          
O65      O      0.554600000000     0.149000000000     0.911400000000     0          
C66      C      0.593500000000     0.132200000000     0.857800000000     0          
O67      O      0.604400000000     0.081700000000     0.833600000000     0          
C68      C      0.630900000000     0.173600000000     0.823900000000     0          
C69      C      0.629100000000     0.226100000000     0.860000000000     0          
C70      C      0.671300000000     0.159700000000     0.760100000000     0          
H71      H      0.602100000000     0.234900000000     0.902400000000     0          
C72      C      0.667100000000     0.265900000000     0.834000000000     0          
C73      C      0.712500000000     0.200900000000     0.735900000000     0          
H74      H      0.671700000000     0.124700000000     0.733700000000     0          
C75      C      0.661100000000     0.326900000000     0.880600000000     0          
C76      C      0.707400000000     0.252800000000     0.768800000000     0          
H77      H      0.741900000000     0.191700000000     0.698200000000     0          
H78      H      0.648300000000     0.353100000000     0.836700000000     0          
H79      H      0.696600000000     0.338500000000     0.903300000000     0          
H80      H      0.635000000000     0.324900000000     0.929300000000     0          
O81      O      0.545620000000     0.852000000000     0.567000000000     0          
O82      O      0.445400000000     0.851000000000     0.911400000000     0          
C83      C      0.406500000000     0.867800000000     0.857800000000     0          
O84      O      0.395600000000     0.918300000000     0.833600000000     0          
C85      C      0.369100000000     0.826400000000     0.823900000000     0          
C86      C      0.370900000000     0.773900000000     0.860000000000     0          
C87      C      0.328700000000     0.840300000000     0.760100000000     0          
H88      H      0.397900000000     0.765100000000     0.902400000000     0          
C89      C      0.332900000000     0.734100000000     0.834000000000     0          
C90      C      0.287500000000     0.799100000000     0.735900000000     0          
H91      H      0.328300000000     0.875300000000     0.733700000000     0          
C92      C      0.338900000000     0.673100000000     0.880600000000     0          
C93      C      0.292600000000     0.747200000000     0.768800000000     0          
H94      H      0.258100000000     0.808300000000     0.698200000000     0          
H95      H      0.351700000000     0.646900000000     0.836700000000     0          
H96      H      0.303400000000     0.661500000000     0.903300000000     0          
H97      H      0.365000000000     0.675100000000     0.929300000000     0          
O98      O      0.149000000000     0.445400000000     0.411400000000     0          
C99      C      0.132200000000     0.406500000000     0.357800000000     0          
O100     O      0.081700000000     0.395600000000     0.333600000000     0          
C101     C      0.173600000000     0.369100000000     0.323900000000     0          
C102     C      0.226100000000     0.370900000000     0.360000000000     0          
C103     C      0.159700000000     0.328700000000     0.260100000000     0          
H104     H      0.234900000000     0.397900000000     0.402400000000     0          
C105     C      0.265900000000     0.332900000000     0.334000000000     0          
C106     C      0.200900000000     0.287500000000     0.235900000000     0          
H107     H      0.124700000000     0.328300000000     0.233700000000     0          
C108     C      0.326900000000     0.338900000000     0.380600000000     0          
C109     C      0.252800000000     0.292600000000     0.268800000000     0          
H110     H      0.191700000000     0.258100000000     0.198200000000     0          
H111     H      0.353100000000     0.351700000000     0.336700000000     0          
H112     H      0.338500000000     0.303400000000     0.403300000000     0          
H113     H      0.324900000000     0.365000000000     0.429300000000     0          
O114     O      0.852000000000     0.454380000000     0.067000000000     0          
O115     O      0.851000000000     0.554600000000     0.411400000000     0          
C116     C      0.867800000000     0.593500000000     0.357800000000     0          
O117     O      0.918300000000     0.604400000000     0.333600000000     0          
C118     C      0.826400000000     0.630900000000     0.323900000000     0          
C119     C      0.773900000000     0.629100000000     0.360000000000     0          
C120     C      0.840300000000     0.671300000000     0.260100000000     0          
H121     H      0.765100000000     0.602100000000     0.402400000000     0          
C122     C      0.734100000000     0.667100000000     0.334000000000     0          
C123     C      0.799100000000     0.712500000000     0.235900000000     0          
H124     H      0.875300000000     0.671700000000     0.233700000000     0          
C125     C      0.673100000000     0.661100000000     0.380600000000     0          
C126     C      0.747200000000     0.707400000000     0.268800000000     0          
H127     H      0.808300000000     0.741900000000     0.198200000000     0          
H128     H      0.646900000000     0.648300000000     0.336700000000     0          
H129     H      0.661500000000     0.696600000000     0.403300000000     0          
H130     H      0.675100000000     0.635000000000     0.429300000000     0          
O131     O      0.554600000000     0.851000000000     0.911400000000     0          
C132     C      0.593500000000     0.867800000000     0.857800000000     0          
O133     O      0.604400000000     0.918300000000     0.833600000000     0          
C134     C      0.630900000000     0.826400000000     0.823900000000     0          
C135     C      0.629100000000     0.773900000000     0.860000000000     0          
C136     C      0.671300000000     0.840300000000     0.760100000000     0          
H137     H      0.602100000000     0.765100000000     0.902400000000     0          
C138     C      0.667100000000     0.734100000000     0.834000000000     0          
C139     C      0.712500000000     0.799100000000     0.735900000000     0          
H140     H      0.671700000000     0.875300000000     0.733700000000     0          
C141     C      0.661100000000     0.673100000000     0.880600000000     0          
C142     C      0.707400000000     0.747200000000     0.768800000000     0          
H143     H      0.741900000000     0.808300000000     0.698200000000     0          
H144     H      0.648300000000     0.646900000000     0.836700000000     0          
H145     H      0.696600000000     0.661500000000     0.903300000000     0          
H146     H      0.635000000000     0.675100000000     0.929300000000     0          
O147     O      0.445400000000     0.149000000000     0.911400000000     0          
C148     C      0.406500000000     0.132200000000     0.857800000000     0          
O149     O      0.395600000000     0.081700000000     0.833600000000     0          
C150     C      0.369100000000     0.173600000000     0.823900000000     0          
C151     C      0.370900000000     0.226100000000     0.860000000000     0          
C152     C      0.328700000000     0.159700000000     0.760100000000     0          
H153     H      0.397900000000     0.234900000000     0.902400000000     0          
C154     C      0.332900000000     0.265900000000     0.834000000000     0          
C155     C      0.287500000000     0.200900000000     0.735900000000     0          
H156     H      0.328300000000     0.124700000000     0.733700000000     0          
C157     C      0.338900000000     0.326900000000     0.880600000000     0          
C158     C      0.292600000000     0.252800000000     0.768800000000     0          
H159     H      0.258100000000     0.191700000000     0.698200000000     0          
H160     H      0.351700000000     0.353100000000     0.836700000000     0          
H161     H      0.303400000000     0.338500000000     0.903300000000     0          
H162     H      0.365000000000     0.324900000000     0.929300000000     0          
O163     O      0.454380000000     0.852000000000     0.567000000000     0          
O164     O      0.149000000000     0.554600000000     0.411400000000     0          
C165     C      0.132200000000     0.593500000000     0.357800000000     0          
O166     O      0.081700000000     0.604400000000     0.333600000000     0          
C167     C      0.173600000000     0.630900000000     0.323900000000     0          
C168     C      0.226100000000     0.629100000000     0.360000000000     0          
C169     C      0.159700000000     0.671300000000     0.260100000000     0          
H170     H      0.234900000000     0.602100000000     0.402400000000     0          
C171     C      0.265900000000     0.667100000000     0.334000000000     0          
C172     C      0.200900000000     0.712500000000     0.235900000000     0          
H173     H      0.124700000000     0.671700000000     0.233700000000     0          
C174     C      0.326900000000     0.661100000000     0.380600000000     0          
C175     C      0.252800000000     0.707400000000     0.268800000000     0          
H176     H      0.191700000000     0.741900000000     0.198200000000     0          
H177     H      0.353100000000     0.648300000000     0.336700000000     0          
H178     H      0.338500000000     0.696600000000     0.403300000000     0          
H179     H      0.324900000000     0.635000000000     0.429300000000     0          
O180     O      0.852000000000     0.545620000000     0.067000000000     0          
O181     O      0.851000000000     0.445400000000     0.411400000000     0          
C182     C      0.867800000000     0.406500000000     0.357800000000     0          
O183     O      0.918300000000     0.395600000000     0.333600000000     0          
C184     C      0.826400000000     0.369100000000     0.323900000000     0          
C185     C      0.773900000000     0.370900000000     0.360000000000     0          
C186     C      0.840300000000     0.328700000000     0.260100000000     0          
H187     H      0.765100000000     0.397900000000     0.402400000000     0          
C188     C      0.734100000000     0.332900000000     0.334000000000     0          
C189     C      0.799100000000     0.287500000000     0.235900000000     0          
H190     H      0.875300000000     0.328300000000     0.233700000000     0          
C191     C      0.673100000000     0.338900000000     0.380600000000     0          
C192     C      0.747200000000     0.292600000000     0.268800000000     0          
H193     H      0.808300000000     0.258100000000     0.198200000000     0          
H194     H      0.646900000000     0.351700000000     0.336700000000     0          
H195     H      0.661500000000     0.303400000000     0.403300000000     0          
H196     H      0.675100000000     0.365000000000     0.429300000000     0          
O197     O      0.445400000000     0.851000000000     0.088600000000     0          
C198     C      0.406500000000     0.867800000000     0.142200000000     0          
O199     O      0.395600000000     0.918300000000     0.166400000000     0          
C200     C      0.369100000000     0.826400000000     0.176100000000     0          
C201     C      0.370900000000     0.773900000000     0.140000000000     0          
C202     C      0.328700000000     0.840300000000     0.239900000000     0          
H203     H      0.397900000000     0.765100000000     0.097600000000     0          
C204     C      0.332900000000     0.734100000000     0.166000000000     0          
C205     C      0.287500000000     0.799100000000     0.264100000000     0          
H206     H      0.328300000000     0.875300000000     0.266300000000     0          
C207     C      0.338900000000     0.673100000000     0.119400000000     0          
C208     C      0.292600000000     0.747200000000     0.231200000000     0          
H209     H      0.258100000000     0.808300000000     0.301800000000     0          
H210     H      0.351700000000     0.646900000000     0.163300000000     0          
H211     H      0.303400000000     0.661500000000     0.096700000000     0          
H212     H      0.365000000000     0.675100000000     0.070700000000     0          
O213     O      0.554600000000     0.149000000000     0.088600000000     0          
C214     C      0.593500000000     0.132200000000     0.142200000000     0          
O215     O      0.604400000000     0.081700000000     0.166400000000     0          
C216     C      0.630900000000     0.173600000000     0.176100000000     0          
C217     C      0.629100000000     0.226100000000     0.140000000000     0          
C218     C      0.671300000000     0.159700000000     0.239900000000     0          
H219     H      0.602100000000     0.234900000000     0.097600000000     0          
C220     C      0.667100000000     0.265900000000     0.166000000000     0          
C221     C      0.712500000000     0.200900000000     0.264100000000     0          
H222     H      0.671700000000     0.124700000000     0.266300000000     0          
C223     C      0.661100000000     0.326900000000     0.119400000000     0          
C224     C      0.707400000000     0.252800000000     0.231200000000     0          
H225     H      0.741900000000     0.191700000000     0.301800000000     0          
H226     H      0.648300000000     0.353100000000     0.163300000000     0          
H227     H      0.696600000000     0.338500000000     0.096700000000     0          
H228     H      0.635000000000     0.324900000000     0.070700000000     0          
O229     O      0.851000000000     0.554600000000     0.588600000000     0          
C230     C      0.867800000000     0.593500000000     0.642200000000     0          
O231     O      0.918300000000     0.604400000000     0.666400000000     0          
C232     C      0.826400000000     0.630900000000     0.676100000000     0          
C233     C      0.773900000000     0.629100000000     0.640000000000     0          
C234     C      0.840300000000     0.671300000000     0.739900000000     0          
H235     H      0.765100000000     0.602100000000     0.597600000000     0          
C236     C      0.734100000000     0.667100000000     0.666000000000     0          
C237     C      0.799100000000     0.712500000000     0.764100000000     0          
H238     H      0.875300000000     0.671700000000     0.766300000000     0          
C239     C      0.673100000000     0.661100000000     0.619400000000     0          
C240     C      0.747200000000     0.707400000000     0.731200000000     0          
H241     H      0.808300000000     0.741900000000     0.801800000000     0          
H242     H      0.646900000000     0.648300000000     0.663300000000     0          
H243     H      0.661500000000     0.696600000000     0.596700000000     0          
H244     H      0.675100000000     0.635000000000     0.570700000000     0          
O245     O      0.149000000000     0.445400000000     0.588600000000     0          
C246     C      0.132200000000     0.406500000000     0.642200000000     0          
O247     O      0.081700000000     0.395600000000     0.666400000000     0          
C248     C      0.173600000000     0.369100000000     0.676100000000     0          
C249     C      0.226100000000     0.370900000000     0.640000000000     0          
C250     C      0.159700000000     0.328700000000     0.739900000000     0          
H251     H      0.234900000000     0.397900000000     0.597600000000     0          
C252     C      0.265900000000     0.332900000000     0.666000000000     0          
C253     C      0.200900000000     0.287500000000     0.764100000000     0          
H254     H      0.124700000000     0.328300000000     0.766300000000     0          
C255     C      0.326900000000     0.338900000000     0.619400000000     0          
C256     C      0.252800000000     0.292600000000     0.731200000000     0          
H257     H      0.191700000000     0.258100000000     0.801800000000     0          
H258     H      0.353100000000     0.351700000000     0.663300000000     0          
H259     H      0.338500000000     0.303400000000     0.596700000000     0          
H260     H      0.324900000000     0.365000000000     0.570700000000     0          
Zr261    Zr     0.500000000000     0.101630000000     0.000000000000     0          
Zr262    Zr     0.500000000000     0.898370000000     0.000000000000     0          
Zr263    Zr     0.898370000000     0.500000000000     0.500000000000     0          
Zr264    Zr     0.101630000000     0.500000000000     0.500000000000     0          
O265     O      0.500000000000     0.050100000000     0.114300000000     0          
C266     C      0.500000000000     0.949900000000     0.453100000000     0          
O267     O      0.500000000000     0.949900000000     0.114300000000     0          
C268     C      0.500000000000     0.050100000000     0.453100000000     0          
O269     O      0.949900000000     0.500000000000     0.614300000000     0          
C270     C      0.050100000000     0.500000000000     0.953100000000     0          
O271     O      0.050100000000     0.500000000000     0.614300000000     0          
C272     C      0.949900000000     0.500000000000     0.953100000000     0          
O273     O      0.500000000000     0.050100000000     0.885700000000     0          
C274     C      0.500000000000     0.949900000000     0.546900000000     0          
S275     S      0.500000000000     0.881300000000     0.600000000000     0          
O276     O      0.500000000000     0.889000000000     0.694000000000     0          
O277     O      0.500000000000     0.949900000000     0.885700000000     0          
C278     C      0.500000000000     0.050100000000     0.546900000000     0          
O279     O      0.050100000000     0.500000000000     0.385700000000     0          
C280     C      0.949900000000     0.500000000000     0.046900000000     0          
S281     S      0.881300000000     0.500000000000     0.100000000000     0          
O282     O      0.889000000000     0.500000000000     0.194000000000     0          
O283     O      0.949900000000     0.500000000000     0.385700000000     0          
C284     C      0.050100000000     0.500000000000     0.046900000000     0          
O285     O      0.429000000000     0.050200000000     0.000000000000     0          
O286     O      0.571000000000     0.949800000000     0.000000000000     0          
O287     O      0.949800000000     0.429000000000     0.500000000000     0          
O288     O      0.050200000000     0.571000000000     0.500000000000     0          
O289     O      0.571000000000     0.050200000000     0.000000000000     0          
O290     O      0.429000000000     0.949800000000     0.000000000000     0          
O291     O      0.050200000000     0.429000000000     0.500000000000     0          
O292     O      0.949800000000     0.571000000000     0.500000000000     0          
Zr293    Zr     0.427830000000     0.000000000000     0.117330000000     0          
O294     O      0.440400000000     0.000000000000     0.259800000000     0          
Zr295    Zr     0.572170000000     0.000000000000     0.117330000000     0          
O296     O      0.559600000000     0.000000000000     0.259800000000     0          
Zr297    Zr     0.000000000000     0.427830000000     0.617330000000     0          
O298     O      0.000000000000     0.440400000000     0.759800000000     0          
Zr299    Zr     0.000000000000     0.572170000000     0.617330000000     0          
O300     O      0.000000000000     0.559600000000     0.759800000000     0          
Zr301    Zr     0.572170000000     0.000000000000     0.882670000000     0          
O302     O      0.559600000000     0.000000000000     0.740200000000     0          
Zr303    Zr     0.427830000000     0.000000000000     0.882670000000     0          
O304     O      0.440400000000     0.000000000000     0.740200000000     0          
Zr305    Zr     0.000000000000     0.427830000000     0.382670000000     0          
O306     O      0.000000000000     0.440400000000     0.240200000000     0          
Zr307    Zr     0.000000000000     0.572170000000     0.382670000000     0          
O308     O      0.000000000000     0.559600000000     0.240200000000     0          
C309     C      0.500000000000     0.000000000000     0.302900000000     0          
C310     C      0.500000000000     0.000000000000     0.406700000000     0          
C311     C      0.000000000000     0.500000000000     0.802900000000     0          
C312     C      0.000000000000     0.500000000000     0.906700000000     0          
C313     C      0.500000000000     0.000000000000     0.697100000000     0          
C314     C      0.500000000000     0.000000000000     0.593300000000     0          
C315     C      0.000000000000     0.500000000000     0.197100000000     0          
C316     C      0.000000000000     0.500000000000     0.093300000000     0          
H317     H      0.500000000000     0.090940000000     0.414410000000     0          
H318     H      0.500000000000     0.090940000000     0.585590000000     0          
H319     H      0.500000000000     0.909060000000     0.414410000000     0          
H320     H      0.909060000000     0.500000000000     0.914410000000     0          
H321     H      0.090940000000     0.500000000000     0.914410000000     0          
H322     H      0.090940000000     0.500000000000     0.085590000000     0          


