data_LOBQOL

_audit_creation_method RASPA-1.0
_audit_creation_date 2020-11-2
_audit_author_name 'Rocio Bueno-Perez'

_cell_length_a    24.25
_cell_length_b    24.25
_cell_length_c    14.706
_cell_angle_alpha 90
_cell_angle_beta  90
_cell_angle_gamma 90
_cell_volume      8648.05

_symmetry_cell_setting          triclinic
_symmetry_space_group_name_Hall 'P 1'
_symmetry_space_group_name_H-M  'P 1'
_symmetry_Int_Tables_number     1

_symmetry_equiv_pos_as_xyz 'x,y,z'

loop_
_atom_site_label
_atom_site_type_symbol
_atom_site_fract_x
_atom_site_fract_y
_atom_site_fract_z
_atom_site_charge
O1       O      0.851300000000     0.445500000000     0.411400000000     0          
O2       O      0.919300000000     0.396800000000     0.328200000000     0          
C3       C      0.772300000000     0.372600000000     0.361800000000     0          
H4       H      0.763700000000     0.400000000000     0.403700000000     0          
C5       C      0.824200000000     0.370200000000     0.322700000000     0          
C6       C      0.735200000000     0.335200000000     0.338200000000     0          
C7       C      0.801500000000     0.287900000000     0.226700000000     0          
H8       H      0.808400000000     0.262200000000     0.181100000000     0          
C9       C      0.870100000000     0.405500000000     0.353400000000     0          
C10      C      0.843700000000     0.325200000000     0.256400000000     0          
H11      H      0.880100000000     0.322400000000     0.237000000000     0          
C12      C      0.750600000000     0.291100000000     0.267600000000     0          
C13      C      0.675900000000     0.335600000000     0.399300000000     0          
H14      H      0.681000000000     0.357100000000     0.453400000000     0          
H15      H      0.666400000000     0.298500000000     0.415700000000     0          
H16      H      0.646900000000     0.351300000000     0.363400000000     0          
O17      O      0.148700000000     0.554500000000     0.411400000000     0          
O18      O      0.080700000000     0.603200000000     0.328200000000     0          
C19      C      0.227700000000     0.627400000000     0.361800000000     0          
H20      H      0.236300000000     0.600000000000     0.403700000000     0          
C21      C      0.175800000000     0.629800000000     0.322700000000     0          
C22      C      0.264800000000     0.664800000000     0.338200000000     0          
C23      C      0.198500000000     0.712100000000     0.226700000000     0          
H24      H      0.191600000000     0.737800000000     0.181100000000     0          
C25      C      0.129900000000     0.594500000000     0.353400000000     0          
C26      C      0.156300000000     0.674800000000     0.256400000000     0          
H27      H      0.119900000000     0.677600000000     0.237000000000     0          
C28      C      0.249400000000     0.708900000000     0.267600000000     0          
C29      C      0.324100000000     0.664400000000     0.399300000000     0          
H30      H      0.319000000000     0.642900000000     0.453400000000     0          
H31      H      0.333600000000     0.701500000000     0.415700000000     0          
H32      H      0.353100000000     0.648700000000     0.363400000000     0          
O33      O      0.554500000000     0.851300000000     0.911400000000     0          
O34      O      0.603200000000     0.919300000000     0.828200000000     0          
C35      C      0.627400000000     0.772300000000     0.861800000000     0          
H36      H      0.600000000000     0.763700000000     0.903700000000     0          
C37      C      0.629800000000     0.824200000000     0.822700000000     0          
C38      C      0.664800000000     0.735200000000     0.838200000000     0          
C39      C      0.712100000000     0.801500000000     0.726700000000     0          
H40      H      0.737800000000     0.808400000000     0.681100000000     0          
C41      C      0.594500000000     0.870100000000     0.853400000000     0          
C42      C      0.674800000000     0.843700000000     0.756400000000     0          
H43      H      0.677600000000     0.880100000000     0.737000000000     0          
C44      C      0.708900000000     0.750600000000     0.767600000000     0          
C45      C      0.664400000000     0.675900000000     0.899300000000     0          
H46      H      0.642900000000     0.681000000000     0.953400000000     0          
H47      H      0.701500000000     0.666400000000     0.915700000000     0          
H48      H      0.648700000000     0.646900000000     0.863400000000     0          
O49      O      0.445500000000     0.148700000000     0.911400000000     0          
O50      O      0.396800000000     0.080700000000     0.828200000000     0          
C51      C      0.372600000000     0.227700000000     0.861800000000     0          
H52      H      0.400000000000     0.236300000000     0.903700000000     0          
C53      C      0.370200000000     0.175800000000     0.822700000000     0          
C54      C      0.335200000000     0.264800000000     0.838200000000     0          
C55      C      0.287900000000     0.198500000000     0.726700000000     0          
H56      H      0.262200000000     0.191600000000     0.681100000000     0          
C57      C      0.405500000000     0.129900000000     0.853400000000     0          
C58      C      0.325200000000     0.156300000000     0.756400000000     0          
H59      H      0.322400000000     0.119900000000     0.737000000000     0          
C60      C      0.291100000000     0.249400000000     0.767600000000     0          
C61      C      0.335600000000     0.324100000000     0.899300000000     0          
H62      H      0.357100000000     0.319000000000     0.953400000000     0          
H63      H      0.298500000000     0.333600000000     0.915700000000     0          
H64      H      0.351300000000     0.353100000000     0.863400000000     0          
H65      H      0.396800000000     0.026200000000     0.647400000000     0          
H66      H      0.388400000000     0.963900000000     0.622800000000     0          
H67      H      0.366400000000     0.009900000000     0.557300000000     0          
O68      O      0.148700000000     0.445500000000     0.588600000000     0          
O69      O      0.080700000000     0.396800000000     0.671800000000     0          
C70      C      0.227700000000     0.372600000000     0.638200000000     0          
H71      H      0.236300000000     0.400000000000     0.596300000000     0          
C72      C      0.175800000000     0.370200000000     0.677300000000     0          
C73      C      0.264800000000     0.335200000000     0.661800000000     0          
C74      C      0.198500000000     0.287900000000     0.773300000000     0          
H75      H      0.191600000000     0.262200000000     0.818900000000     0          
C76      C      0.129900000000     0.405500000000     0.646600000000     0          
C77      C      0.156300000000     0.325200000000     0.743600000000     0          
H78      H      0.119900000000     0.322400000000     0.763000000000     0          
C79      C      0.249400000000     0.291100000000     0.732400000000     0          
C80      C      0.324100000000     0.335600000000     0.600700000000     0          
H81      H      0.319000000000     0.357100000000     0.546600000000     0          
H82      H      0.333600000000     0.298500000000     0.584300000000     0          
H83      H      0.353100000000     0.351300000000     0.636600000000     0          
O84      O      0.851300000000     0.554500000000     0.588600000000     0          
O85      O      0.919300000000     0.603200000000     0.671800000000     0          
C86      C      0.772300000000     0.627400000000     0.638200000000     0          
H87      H      0.763700000000     0.600000000000     0.596300000000     0          
C88      C      0.824200000000     0.629800000000     0.677300000000     0          
C89      C      0.735200000000     0.664800000000     0.661800000000     0          
C90      C      0.801500000000     0.712100000000     0.773300000000     0          
H91      H      0.808400000000     0.737800000000     0.818900000000     0          
C92      C      0.870100000000     0.594500000000     0.646600000000     0          
C93      C      0.843700000000     0.674800000000     0.743600000000     0          
H94      H      0.880100000000     0.677600000000     0.763000000000     0          
C95      C      0.750600000000     0.708900000000     0.732400000000     0          
C96      C      0.675900000000     0.664400000000     0.600700000000     0          
H97      H      0.681000000000     0.642900000000     0.546600000000     0          
H98      H      0.666400000000     0.701500000000     0.584300000000     0          
H99      H      0.646900000000     0.648700000000     0.636600000000     0          
O100     O      0.445500000000     0.851300000000     0.088600000000     0          
O101     O      0.396800000000     0.919300000000     0.171800000000     0          
C102     C      0.372600000000     0.772300000000     0.138200000000     0          
H103     H      0.400000000000     0.763700000000     0.096300000000     0          
C104     C      0.370200000000     0.824200000000     0.177300000000     0          
C105     C      0.335200000000     0.735200000000     0.161800000000     0          
C106     C      0.287900000000     0.801500000000     0.273300000000     0          
H107     H      0.262200000000     0.808400000000     0.318900000000     0          
C108     C      0.405500000000     0.870100000000     0.146600000000     0          
C109     C      0.325200000000     0.843700000000     0.243600000000     0          
H110     H      0.322400000000     0.880100000000     0.263000000000     0          
C111     C      0.291100000000     0.750600000000     0.232400000000     0          
C112     C      0.335600000000     0.675900000000     0.100700000000     0          
H113     H      0.357100000000     0.681000000000     0.046600000000     0          
H114     H      0.298500000000     0.666400000000     0.084300000000     0          
H115     H      0.351300000000     0.646900000000     0.136600000000     0          
O116     O      0.554500000000     0.148700000000     0.088600000000     0          
O117     O      0.603200000000     0.080700000000     0.171800000000     0          
C118     C      0.627400000000     0.227700000000     0.138200000000     0          
H119     H      0.600000000000     0.236300000000     0.096300000000     0          
C120     C      0.629800000000     0.175800000000     0.177300000000     0          
C121     C      0.664800000000     0.264800000000     0.161800000000     0          
C122     C      0.712100000000     0.198500000000     0.273300000000     0          
H123     H      0.737800000000     0.191600000000     0.318900000000     0          
C124     C      0.594500000000     0.129900000000     0.146600000000     0          
C125     C      0.674800000000     0.156300000000     0.243600000000     0          
H126     H      0.677600000000     0.119900000000     0.263000000000     0          
C127     C      0.708900000000     0.249400000000     0.232400000000     0          
C128     C      0.664400000000     0.324100000000     0.100700000000     0          
H129     H      0.642900000000     0.319000000000     0.046600000000     0          
H130     H      0.701500000000     0.333600000000     0.084300000000     0          
H131     H      0.648700000000     0.353100000000     0.136600000000     0          
O132     O      0.148700000000     0.554500000000     0.588600000000     0          
O133     O      0.080700000000     0.603200000000     0.671800000000     0          
C134     C      0.227700000000     0.627400000000     0.638200000000     0          
H135     H      0.236300000000     0.600000000000     0.596300000000     0          
C136     C      0.175800000000     0.629800000000     0.677300000000     0          
C137     C      0.264800000000     0.664800000000     0.661800000000     0          
C138     C      0.198500000000     0.712100000000     0.773300000000     0          
H139     H      0.191600000000     0.737800000000     0.818900000000     0          
C140     C      0.129900000000     0.594500000000     0.646600000000     0          
C141     C      0.156300000000     0.674800000000     0.743600000000     0          
H142     H      0.119900000000     0.677600000000     0.763000000000     0          
C143     C      0.249400000000     0.708900000000     0.732400000000     0          
C144     C      0.324100000000     0.664400000000     0.600700000000     0          
H145     H      0.319000000000     0.642900000000     0.546600000000     0          
H146     H      0.333600000000     0.701500000000     0.584300000000     0          
H147     H      0.353100000000     0.648700000000     0.636600000000     0          
O148     O      0.851300000000     0.445500000000     0.588600000000     0          
O149     O      0.919300000000     0.396800000000     0.671800000000     0          
C150     C      0.772300000000     0.372600000000     0.638200000000     0          
H151     H      0.763700000000     0.400000000000     0.596300000000     0          
C152     C      0.824200000000     0.370200000000     0.677300000000     0          
C153     C      0.735200000000     0.335200000000     0.661800000000     0          
C154     C      0.801500000000     0.287900000000     0.773300000000     0          
H155     H      0.808400000000     0.262200000000     0.818900000000     0          
C156     C      0.870100000000     0.405500000000     0.646600000000     0          
C157     C      0.843700000000     0.325200000000     0.743600000000     0          
H158     H      0.880100000000     0.322400000000     0.763000000000     0          
C159     C      0.750600000000     0.291100000000     0.732400000000     0          
C160     C      0.675900000000     0.335600000000     0.600700000000     0          
H161     H      0.681000000000     0.357100000000     0.546600000000     0          
H162     H      0.666400000000     0.298500000000     0.584300000000     0          
H163     H      0.646900000000     0.351300000000     0.636600000000     0          
H164     H      0.973800000000     0.396800000000     0.852600000000     0          
H165     H      0.036100000000     0.388400000000     0.877200000000     0          
H166     H      0.990100000000     0.366400000000     0.942700000000     0          
O167     O      0.445500000000     0.148700000000     0.088600000000     0          
O168     O      0.396800000000     0.080700000000     0.171800000000     0          
C169     C      0.372600000000     0.227700000000     0.138200000000     0          
H170     H      0.400000000000     0.236300000000     0.096300000000     0          
C171     C      0.370200000000     0.175800000000     0.177300000000     0          
C172     C      0.335200000000     0.264800000000     0.161800000000     0          
C173     C      0.287900000000     0.198500000000     0.273300000000     0          
H174     H      0.262200000000     0.191600000000     0.318900000000     0          
C175     C      0.405500000000     0.129900000000     0.146600000000     0          
C176     C      0.325200000000     0.156300000000     0.243600000000     0          
H177     H      0.322400000000     0.119900000000     0.263000000000     0          
C178     C      0.291100000000     0.249400000000     0.232400000000     0          
C179     C      0.335600000000     0.324100000000     0.100700000000     0          
H180     H      0.357100000000     0.319000000000     0.046600000000     0          
H181     H      0.298500000000     0.333600000000     0.084300000000     0          
H182     H      0.351300000000     0.353100000000     0.136600000000     0          
O183     O      0.554500000000     0.851300000000     0.088600000000     0          
O184     O      0.603200000000     0.919300000000     0.171800000000     0          
C185     C      0.627400000000     0.772300000000     0.138200000000     0          
H186     H      0.600000000000     0.763700000000     0.096300000000     0          
C187     C      0.629800000000     0.824200000000     0.177300000000     0          
C188     C      0.664800000000     0.735200000000     0.161800000000     0          
C189     C      0.712100000000     0.801500000000     0.273300000000     0          
H190     H      0.737800000000     0.808400000000     0.318900000000     0          
C191     C      0.594500000000     0.870100000000     0.146600000000     0          
C192     C      0.674800000000     0.843700000000     0.243600000000     0          
H193     H      0.677600000000     0.880100000000     0.263000000000     0          
C194     C      0.708900000000     0.750600000000     0.232400000000     0          
C195     C      0.664400000000     0.675900000000     0.100700000000     0          
H196     H      0.642900000000     0.681000000000     0.046600000000     0          
H197     H      0.701500000000     0.666400000000     0.084300000000     0          
H198     H      0.648700000000     0.646900000000     0.136600000000     0          
O199     O      0.851300000000     0.554500000000     0.411400000000     0          
O200     O      0.919300000000     0.603200000000     0.328200000000     0          
C201     C      0.772300000000     0.627400000000     0.361800000000     0          
H202     H      0.763700000000     0.600000000000     0.403700000000     0          
C203     C      0.824200000000     0.629800000000     0.322700000000     0          
C204     C      0.735200000000     0.664800000000     0.338200000000     0          
C205     C      0.801500000000     0.712100000000     0.226700000000     0          
H206     H      0.808400000000     0.737800000000     0.181100000000     0          
C207     C      0.870100000000     0.594500000000     0.353400000000     0          
C208     C      0.843700000000     0.674800000000     0.256400000000     0          
H209     H      0.880100000000     0.677600000000     0.237000000000     0          
C210     C      0.750600000000     0.708900000000     0.267600000000     0          
C211     C      0.675900000000     0.664400000000     0.399300000000     0          
H212     H      0.681000000000     0.642900000000     0.453400000000     0          
H213     H      0.666400000000     0.701500000000     0.415700000000     0          
H214     H      0.646900000000     0.648700000000     0.363400000000     0          
O215     O      0.148700000000     0.445500000000     0.411400000000     0          
O216     O      0.080700000000     0.396800000000     0.328200000000     0          
C217     C      0.227700000000     0.372600000000     0.361800000000     0          
H218     H      0.236300000000     0.400000000000     0.403700000000     0          
C219     C      0.175800000000     0.370200000000     0.322700000000     0          
C220     C      0.264800000000     0.335200000000     0.338200000000     0          
C221     C      0.198500000000     0.287900000000     0.226700000000     0          
H222     H      0.191600000000     0.262200000000     0.181100000000     0          
C223     C      0.129900000000     0.405500000000     0.353400000000     0          
C224     C      0.156300000000     0.325200000000     0.256400000000     0          
H225     H      0.119900000000     0.322400000000     0.237000000000     0          
C226     C      0.249400000000     0.291100000000     0.267600000000     0          
C227     C      0.324100000000     0.335600000000     0.399300000000     0          
H228     H      0.319000000000     0.357100000000     0.453400000000     0          
H229     H      0.333600000000     0.298500000000     0.415700000000     0          
H230     H      0.353100000000     0.351300000000     0.363400000000     0          
O231     O      0.554500000000     0.148700000000     0.911400000000     0          
O232     O      0.603200000000     0.080700000000     0.828200000000     0          
C233     C      0.627400000000     0.227700000000     0.861800000000     0          
H234     H      0.600000000000     0.236300000000     0.903700000000     0          
C235     C      0.629800000000     0.175800000000     0.822700000000     0          
C236     C      0.664800000000     0.264800000000     0.838200000000     0          
C237     C      0.712100000000     0.198500000000     0.726700000000     0          
H238     H      0.737800000000     0.191600000000     0.681100000000     0          
C239     C      0.594500000000     0.129900000000     0.853400000000     0          
C240     C      0.674800000000     0.156300000000     0.756400000000     0          
H241     H      0.677600000000     0.119900000000     0.737000000000     0          
C242     C      0.708900000000     0.249400000000     0.767600000000     0          
C243     C      0.664400000000     0.324100000000     0.899300000000     0          
H244     H      0.642900000000     0.319000000000     0.953400000000     0          
H245     H      0.701500000000     0.333600000000     0.915700000000     0          
H246     H      0.648700000000     0.353100000000     0.863400000000     0          
O247     O      0.445500000000     0.851300000000     0.911400000000     0          
O248     O      0.396800000000     0.919300000000     0.828200000000     0          
C249     C      0.372600000000     0.772300000000     0.861800000000     0          
H250     H      0.400000000000     0.763700000000     0.903700000000     0          
C251     C      0.370200000000     0.824200000000     0.822700000000     0          
C252     C      0.335200000000     0.735200000000     0.838200000000     0          
C253     C      0.287900000000     0.801500000000     0.726700000000     0          
H254     H      0.262200000000     0.808400000000     0.681100000000     0          
C255     C      0.405500000000     0.870100000000     0.853400000000     0          
C256     C      0.325200000000     0.843700000000     0.756400000000     0          
H257     H      0.322400000000     0.880100000000     0.737000000000     0          
C258     C      0.291100000000     0.750600000000     0.767600000000     0          
C259     C      0.335600000000     0.675900000000     0.899300000000     0          
H260     H      0.357100000000     0.681000000000     0.953400000000     0          
H261     H      0.298500000000     0.666400000000     0.915700000000     0          
H262     H      0.351300000000     0.646900000000     0.863400000000     0          
Zr263    Zr     0.000000000000     0.427680000000     0.379430000000     0          
O264     O      0.000000000000     0.437100000000     0.234500000000     0          
C265     C      0.000000000000     0.453280000000     0.045460000000     0          
Zr266    Zr     0.000000000000     0.572320000000     0.379430000000     0          
O267     O      0.000000000000     0.562900000000     0.234500000000     0          
C268     C      0.000000000000     0.546720000000     0.045460000000     0          
Zr269    Zr     0.572320000000     0.000000000000     0.879430000000     0          
O270     O      0.562900000000     0.000000000000     0.734500000000     0          
C271     C      0.546720000000     0.000000000000     0.545460000000     0          
Zr272    Zr     0.427680000000     0.000000000000     0.879430000000     0          
O273     O      0.437100000000     0.000000000000     0.734500000000     0          
N274     N      0.453280000000     0.000000000000     0.545460000000     0          
C275     C      0.395390000000     0.000000000000     0.598600000000     0          
Zr276    Zr     0.000000000000     0.427680000000     0.620570000000     0          
O277     O      0.000000000000     0.437100000000     0.765500000000     0          
N278     N      0.000000000000     0.453280000000     0.954540000000     0          
C279     C      0.000000000000     0.395390000000     0.901400000000     0          
Zr280    Zr     0.000000000000     0.572320000000     0.620570000000     0          
O281     O      0.000000000000     0.562900000000     0.765500000000     0          
C282     C      0.000000000000     0.546720000000     0.954540000000     0          
Zr283    Zr     0.427680000000     0.000000000000     0.120570000000     0          
O284     O      0.437100000000     0.000000000000     0.265500000000     0          
C285     C      0.453280000000     0.000000000000     0.454540000000     0          
Zr286    Zr     0.572320000000     0.000000000000     0.120570000000     0          
O287     O      0.562900000000     0.000000000000     0.265500000000     0          
C288     C      0.546720000000     0.000000000000     0.454540000000     0          
Zr289    Zr     0.898090000000     0.500000000000     0.500000000000     0          
Zr290    Zr     0.101910000000     0.500000000000     0.500000000000     0          
Zr291    Zr     0.500000000000     0.898090000000     0.000000000000     0          
Zr292    Zr     0.500000000000     0.101910000000     0.000000000000     0          
O293     O      0.950100000000     0.500000000000     0.382100000000     0          
O294     O      0.049900000000     0.500000000000     0.382100000000     0          
O295     O      0.500000000000     0.950100000000     0.882100000000     0          
O296     O      0.500000000000     0.049900000000     0.882100000000     0          
O297     O      0.049900000000     0.500000000000     0.617900000000     0          
O298     O      0.950100000000     0.500000000000     0.617900000000     0          
O299     O      0.500000000000     0.950100000000     0.117900000000     0          
O300     O      0.500000000000     0.049900000000     0.117900000000     0          
O301     O      0.950700000000     0.426700000000     0.500000000000     0          
O302     O      0.049300000000     0.573300000000     0.500000000000     0          
O303     O      0.573300000000     0.950700000000     0.000000000000     0          
O304     O      0.426700000000     0.049300000000     0.000000000000     0          
O305     O      0.049300000000     0.426700000000     0.500000000000     0          
O306     O      0.950700000000     0.573300000000     0.500000000000     0          
O307     O      0.426700000000     0.950700000000     0.000000000000     0          
O308     O      0.573300000000     0.049300000000     0.000000000000     0          
C309     C      0.000000000000     0.500000000000     0.090700000000     0          
C310     C      0.000000000000     0.500000000000     0.192700000000     0          
C311     C      0.500000000000     0.000000000000     0.590700000000     0          
C312     C      0.500000000000     0.000000000000     0.692700000000     0          
C313     C      0.000000000000     0.500000000000     0.909300000000     0          
C314     C      0.000000000000     0.500000000000     0.807300000000     0          
C315     C      0.500000000000     0.000000000000     0.409300000000     0          
C316     C      0.500000000000     0.000000000000     0.307300000000     0          
H317     H      0.587600000000     0.000000000000     0.583720000000     0          
H318     H      0.412400000000     0.000000000000     0.416280000000     0          
H319     H      0.587600000000     0.000000000000     0.416280000000     0          
H320     H      0.000000000000     0.587600000000     0.916280000000     0          
H321     H      0.000000000000     0.412400000000     0.083720000000     0          
H322     H      0.000000000000     0.587600000000     0.083720000000     0          


