data_MANROL

_audit_creation_method RASPA-1.0
_audit_creation_date 2020-1-15
_audit_author_name 'Rocio Bueno-Perez'

_cell_length_a    10.3925
_cell_length_b    16.372
_cell_length_c    16.948
_cell_angle_alpha 93.428
_cell_angle_beta  100.442
_cell_angle_gamma 98.703
_cell_volume      2791.92

_symmetry_cell_setting          triclinic
_symmetry_space_group_name_Hall 'P 1'
_symmetry_space_group_name_H-M  'P 1'
_symmetry_Int_Tables_number     1

_symmetry_equiv_pos_as_xyz 'x,y,z'

loop_
_atom_site_label
_atom_site_type_symbol
_atom_site_fract_x
_atom_site_fract_y
_atom_site_fract_z
_atom_site_charge
Zr2      Zr     0.042000000000     0.058330000000     0.383060000000     0          
P2       P      0.878120000000     0.004850000000     0.476070000000     0          
Na2      Na     0.492900000000     0.898340000000     0.465690000000     0          
O4       O      0.624300000000     0.021900000000     0.475900000000     0          
O5       O      0.540000000000     0.826300000000     0.353000000000     0          
O6       O      0.376600000000     0.770200000000     0.483500000000     0          
C26      C      0.821900000000     0.077800000000     0.322900000000     0          
C27      C      0.722900000000     0.031000000000     0.440200000000     0          
C28      C      0.710000000000     0.064500000000     0.360000000000     0          
C29      C      0.129600000000     0.199000000000     0.340700000000     0          
H31      H      0.121600000000     0.203900000000     0.284500000000     0          
C30      C      0.797600000000     0.104600000000     0.246300000000     0          
H32      H      0.869800000000     0.115300000000     0.219000000000     0          
C31      C      0.082600000000     0.198100000000     0.466500000000     0          
H33      H      0.037700000000     0.201900000000     0.510400000000     0          
C32      C      0.958200000000     0.948200000000     0.265100000000     0          
H34      H      0.866600000000     0.939700000000     0.241000000000     0          
C33      C      0.644400000000     0.843200000000     0.308800000000     0          
H35      H      0.682400000000     0.792500000000     0.298900000000     0          
H36      H      0.716000000000     0.886700000000     0.339000000000     0          
C34      C      0.236800000000     0.175800000000     0.392100000000     0          
H37      H      0.315200000000     0.162700000000     0.376500000000     0          
C35      C      0.035300000000     0.214000000000     0.388400000000     0          
H38      H      0.953300000000     0.231900000000     0.369800000000     0          
C36      C      0.153700000000     0.937800000000     0.345900000000     0          
H39      H      0.217500000000     0.920800000000     0.386500000000     0          
C37      C      0.178300000000     0.996800000000     0.292700000000     0          
H40      H      0.262800000000     0.027400000000     0.290600000000     0          
C38      C      0.584800000000     0.079100000000     0.323500000000     0          
H41      H      0.512800000000     0.071900000000     0.351400000000     0          
C39      C      0.251100000000     0.751500000000     0.507300000000     0          
H42      H      0.185300000000     0.717500000000     0.463500000000     0          
H43      H      0.217700000000     0.803200000000     0.520400000000     0          
C40      C      0.014900000000     0.907300000000     0.328300000000     0          
H44      H      0.969200000000     0.866300000000     0.355100000000     0          
C41      C      0.582100000000     0.872700000000     0.229300000000     0          
H45      H      0.613900000000     0.847200000000     0.183600000000     0          
H46      H      0.602900000000     0.933900000000     0.230200000000     0          
C42      C      0.209800000000     0.175000000000     0.470000000000     0          
H47      H      0.265900000000     0.161600000000     0.516500000000     0          
C43      C      0.566900000000     0.104300000000     0.246200000000     0          
H48      H      0.481600000000     0.113000000000     0.220400000000     0          
C44      C      0.057900000000     0.003900000000     0.242400000000     0          
H49      H      0.046400000000     0.040000000000     0.200800000000     0          
C45      C      0.275100000000     0.703700000000     0.581000000000     0          
H50      H      0.201900000000     0.656900000000     0.579200000000     0          
H51      H      0.284300000000     0.740300000000     0.631100000000     0          
C46      C      0.425700000000     0.790900000000     0.292300000000     0          
H52      H      0.342700000000     0.793000000000     0.312600000000     0          
H53      H      0.429600000000     0.732500000000     0.275600000000     0          
C47      C      0.434000000000     0.697000000000     0.496200000000     0          
H54      H      0.530900000000     0.708500000000     0.498300000000     0          
H55      H      0.393400000000     0.652600000000     0.452800000000     0          
C48      C      0.671500000000     0.116700000000     0.206900000000     0          
H56      H      0.659000000000     0.133300000000     0.153700000000     0          
C49      C      0.432800000000     0.843800000000     0.223200000000     0          
H57      H      0.386200000000     0.891700000000     0.228700000000     0          
H58      H      0.393100000000     0.811200000000     0.171100000000     0          
C50      C      0.403900000000     0.672900000000     0.575700000000     0          
H59      H      0.475700000000     0.699400000000     0.620500000000     0          
H60      H      0.393200000000     0.611900000000     0.577600000000     0          
Zr2A     Zr     0.958000000000     0.941670000000     0.616940000000     0          
P2A      P      0.121880000000     0.995150000000     0.523930000000     0          
Na2A     Na     0.507100000000     0.101660000000     0.534310000000     0          
O4A      O      0.375700000000     0.978100000000     0.524100000000     0          
C27A     C      0.277100000000     0.969000000000     0.559800000000     0          
C37A     C      0.821700000000     0.003200000000     0.707300000000     0          
C44A     C      0.942100000000     0.996100000000     0.757600000000     0          
O5A      O      0.460000000000     0.173700000000     0.647000000000     0          
O6A      O      0.623400000000     0.229800000000     0.516500000000     0          
C34A     C      0.763200000000     0.824200000000     0.607900000000     0          
C36A     C      0.846300000000     0.062200000000     0.654100000000     0          
C26A     C      0.178100000000     0.922200000000     0.677100000000     0          
C42A     C      0.790200000000     0.825000000000     0.530000000000     0          
C29A     C      0.870400000000     0.801000000000     0.659300000000     0          
C33A     C      0.355600000000     0.156800000000     0.691200000000     0          
C46A     C      0.574300000000     0.209100000000     0.707700000000     0          
C35A     C      0.964700000000     0.786000000000     0.611600000000     0          
C39A     C      0.748900000000     0.248500000000     0.492700000000     0          
C47A     C      0.566000000000     0.303000000000     0.503800000000     0          
C32A     C      0.041800000000     0.051800000000     0.734900000000     0          
C28A     C      0.290000000000     0.935500000000     0.640000000000     0          
C30A     C      0.202400000000     0.895400000000     0.753700000000     0          
C40A     C      0.985100000000     0.092700000000     0.671700000000     0          
C31A     C      0.917400000000     0.801900000000     0.533500000000     0          
C38A     C      0.415200000000     0.920900000000     0.676500000000     0          
C43A     C      0.433100000000     0.895700000000     0.753800000000     0          
H39A     H      0.782500000000     0.079200000000     0.613500000000     0          
H35A     H      0.317600000000     0.207500000000     0.701100000000     0          
H42A     H      0.814700000000     0.282500000000     0.536500000000     0          
H40A     H      0.737200000000     0.972600000000     0.709400000000     0          
H43A     H      0.782300000000     0.196800000000     0.479600000000     0          
C48A     C      0.328500000000     0.883300000000     0.793100000000     0          
C45A     C      0.724900000000     0.296300000000     0.419000000000     0          
H44A     H      0.030800000000     0.133700000000     0.644900000000     0          
H41A     H      0.487200000000     0.928100000000     0.648600000000     0          
C41A     C      0.417900000000     0.127300000000     0.770700000000     0          
H45A     H      0.386100000000     0.152800000000     0.816400000000     0          
H46A     H      0.397100000000     0.066100000000     0.769800000000     0          
H34A     H      0.133400000000     0.060300000000     0.759000000000     0          
H32A     H      0.130200000000     0.884700000000     0.781000000000     0          
H36A     H      0.284000000000     0.113300000000     0.661000000000     0          
H33A     H      0.962300000000     0.798100000000     0.489600000000     0          
H38A     H      0.046700000000     0.768100000000     0.630200000000     0          
H37A     H      0.684800000000     0.837300000000     0.623500000000     0          
H31A     H      0.878400000000     0.796100000000     0.715500000000     0          
H56A     H      0.341000000000     0.866700000000     0.846300000000     0          
H51A     H      0.715700000000     0.259700000000     0.368900000000     0          
C50A     C      0.596100000000     0.327100000000     0.424300000000     0          
H60A     H      0.606800000000     0.388100000000     0.422400000000     0          
C49A     C      0.567200000000     0.156200000000     0.776800000000     0          
H50A     H      0.798100000000     0.343100000000     0.420800000000     0          
H47A     H      0.734100000000     0.838400000000     0.483500000000     0          
H49A     H      0.953600000000     0.960000000000     0.799200000000     0          
H53A     H      0.570400000000     0.267500000000     0.724400000000     0          
H52A     H      0.657300000000     0.207000000000     0.687400000000     0          
H55A     H      0.606600000000     0.347400000000     0.547200000000     0          
H57A     H      0.613800000000     0.108300000000     0.771300000000     0          
H48A     H      0.518400000000     0.887000000000     0.779600000000     0          
H58A     H      0.606900000000     0.188800000000     0.828900000000     0          
H59A     H      0.524300000000     0.300600000000     0.379500000000     0          
H54A     H      0.469100000000     0.291500000000     0.501700000000     0          


