data_MUBZUG

_audit_creation_method RASPA-1.0
_audit_creation_date 2020-11-2
_audit_author_name 'Rocio Bueno-Perez'

_cell_length_a    21.983
_cell_length_b    21.983
_cell_length_c    21.983
_cell_angle_alpha 90
_cell_angle_beta  90
_cell_angle_gamma 90
_cell_volume      10623.3

_symmetry_cell_setting          triclinic
_symmetry_space_group_name_Hall 'P 1'
_symmetry_space_group_name_H-M  'P 1'
_symmetry_Int_Tables_number     1

_symmetry_equiv_pos_as_xyz 'x,y,z'

loop_
_atom_site_label
_atom_site_type_symbol
_atom_site_fract_x
_atom_site_fract_y
_atom_site_fract_z
_atom_site_charge
Zr1      Zr     0.387740000000     0.500020000000     0.500030000000     0          
O2       O      0.444200000000     0.555320000000     0.444430000000     0          
O3       O      0.588010000000     0.338290000000     0.500220000000     0          
O4       O      0.412530000000     0.338020000000     0.499670000000     0          
O5       O      0.661720000000     0.412110000000     0.500040000000     0          
O6       O      0.338280000000     0.412210000000     0.499940000000     0          
C7       C      0.643500000000     0.357500000000     0.500300000000     0          
C8       C      0.358000000000     0.356200000000     0.499800000000     0          
C9       C      0.946500000000     0.129500000000     0.506400000000     0          
C10      C      0.999000000000     0.159500000000     0.501000000000     0          
H11      H      0.998600000000     0.202300000000     0.501300000000     0          
C12      C      0.054100000000     0.129500000000     0.495000000000     0          
C13      C      0.057300000000     0.063300000000     0.496100000000     0          
C14      C      0.000200000000     0.032400000000     0.498800000000     0          
C15      C      0.941900000000     0.065300000000     0.506500000000     0          
C16      C      0.109800000000     0.162400000000     0.498200000000     0          
C17      C      0.155600000000     0.194100000000     0.501900000000     0          
C18      C      0.204100000000     0.235300000000     0.501900000000     0          
C19      C      0.263100000000     0.215900000000     0.495400000000     0          
H20      H      0.271300000000     0.174400000000     0.489000000000     0          
C21      C      0.310600000000     0.257000000000     0.498100000000     0          
H22      H      0.351100000000     0.243300000000     0.499500000000     0          
C23      C      0.297600000000     0.318400000000     0.498800000000     0          
C24      C      0.239400000000     0.342300000000     0.497900000000     0          
H25      H      0.231500000000     0.384300000000     0.495600000000     0          
C26      C      0.192300000000     0.297800000000     0.501000000000     0          
H27      H      0.151600000000     0.311100000000     0.502400000000     0          
C28      C      0.891500000000     0.165400000000     0.499300000000     0          
C29      C      0.846400000000     0.194500000000     0.500700000000     0          
C30      C      0.702600000000     0.319800000000     0.501100000000     0          
C31      C      0.690300000000     0.259400000000     0.501300000000     0          
H32      H      0.649900000000     0.245400000000     0.502500000000     0          
C33      C      0.738600000000     0.218400000000     0.499700000000     0          
H34      H      0.731100000000     0.176400000000     0.496400000000     0          
C35      C      0.795900000000     0.239100000000     0.502900000000     0          
C36      C      0.806900000000     0.300200000000     0.501400000000     0          
H37      H      0.847200000000     0.314500000000     0.501100000000     0          
C38      C      0.759100000000     0.341300000000     0.500400000000     0          
H39      H      0.766500000000     0.383400000000     0.499100000000     0          
Zr40     Zr     0.500030000000     0.387740000000     0.500020000000     0          
O41      O      0.444430000000     0.444200000000     0.555320000000     0          
O42      O      0.500220000000     0.588010000000     0.338290000000     0          
O43      O      0.499670000000     0.412530000000     0.338020000000     0          
O44      O      0.500040000000     0.661720000000     0.412110000000     0          
O45      O      0.499940000000     0.338280000000     0.412210000000     0          
C46      C      0.500300000000     0.643500000000     0.357500000000     0          
C47      C      0.499800000000     0.358000000000     0.356200000000     0          
C48      C      0.506400000000     0.946500000000     0.129500000000     0          
C49      C      0.501000000000     0.999000000000     0.159500000000     0          
H50      H      0.501300000000     0.998600000000     0.202300000000     0          
C51      C      0.495000000000     0.054100000000     0.129500000000     0          
C52      C      0.496100000000     0.057300000000     0.063300000000     0          
C53      C      0.498800000000     0.000200000000     0.032400000000     0          
C54      C      0.506500000000     0.941900000000     0.065300000000     0          
C55      C      0.498200000000     0.109800000000     0.162400000000     0          
C56      C      0.501900000000     0.155600000000     0.194100000000     0          
C57      C      0.501900000000     0.204100000000     0.235300000000     0          
C58      C      0.495400000000     0.263100000000     0.215900000000     0          
H59      H      0.489000000000     0.271300000000     0.174400000000     0          
C60      C      0.498100000000     0.310600000000     0.257000000000     0          
H61      H      0.499500000000     0.351100000000     0.243300000000     0          
C62      C      0.498800000000     0.297600000000     0.318400000000     0          
C63      C      0.497900000000     0.239400000000     0.342300000000     0          
H64      H      0.495600000000     0.231500000000     0.384300000000     0          
C65      C      0.501000000000     0.192300000000     0.297800000000     0          
H66      H      0.502400000000     0.151600000000     0.311100000000     0          
C67      C      0.499300000000     0.891500000000     0.165400000000     0          
C68      C      0.500700000000     0.846400000000     0.194500000000     0          
C69      C      0.501100000000     0.702600000000     0.319800000000     0          
C70      C      0.501300000000     0.690300000000     0.259400000000     0          
H71      H      0.502500000000     0.649900000000     0.245400000000     0          
C72      C      0.499700000000     0.738600000000     0.218400000000     0          
H73      H      0.496400000000     0.731100000000     0.176400000000     0          
C74      C      0.502900000000     0.795900000000     0.239100000000     0          
C75      C      0.501400000000     0.806900000000     0.300200000000     0          
H76      H      0.501100000000     0.847200000000     0.314500000000     0          
C77      C      0.500400000000     0.759100000000     0.341300000000     0          
H78      H      0.499100000000     0.766500000000     0.383400000000     0          
Zr79     Zr     0.500020000000     0.500030000000     0.387740000000     0          
O80      O      0.555320000000     0.444430000000     0.444200000000     0          
O81      O      0.338290000000     0.500220000000     0.588010000000     0          
O82      O      0.338020000000     0.499670000000     0.412530000000     0          
O83      O      0.412110000000     0.500040000000     0.661720000000     0          
O84      O      0.412210000000     0.499940000000     0.338280000000     0          
C85      C      0.357500000000     0.500300000000     0.643500000000     0          
C86      C      0.356200000000     0.499800000000     0.358000000000     0          
C87      C      0.129500000000     0.506400000000     0.946500000000     0          
C88      C      0.159500000000     0.501000000000     0.999000000000     0          
H89      H      0.202300000000     0.501300000000     0.998600000000     0          
C90      C      0.129500000000     0.495000000000     0.054100000000     0          
C91      C      0.063300000000     0.496100000000     0.057300000000     0          
C92      C      0.032400000000     0.498800000000     0.000200000000     0          
C93      C      0.065300000000     0.506500000000     0.941900000000     0          
C94      C      0.162400000000     0.498200000000     0.109800000000     0          
C95      C      0.194100000000     0.501900000000     0.155600000000     0          
C96      C      0.235300000000     0.501900000000     0.204100000000     0          
C97      C      0.215900000000     0.495400000000     0.263100000000     0          
H98      H      0.174400000000     0.489000000000     0.271300000000     0          
C99      C      0.257000000000     0.498100000000     0.310600000000     0          
H100     H      0.243300000000     0.499500000000     0.351100000000     0          
C101     C      0.318400000000     0.498800000000     0.297600000000     0          
C102     C      0.342300000000     0.497900000000     0.239400000000     0          
H103     H      0.384300000000     0.495600000000     0.231500000000     0          
C104     C      0.297800000000     0.501000000000     0.192300000000     0          
H105     H      0.311100000000     0.502400000000     0.151600000000     0          
C106     C      0.165400000000     0.499300000000     0.891500000000     0          
C107     C      0.194500000000     0.500700000000     0.846400000000     0          
C108     C      0.319800000000     0.501100000000     0.702600000000     0          
C109     C      0.259400000000     0.501300000000     0.690300000000     0          
H110     H      0.245400000000     0.502500000000     0.649900000000     0          
C111     C      0.218400000000     0.499700000000     0.738600000000     0          
H112     H      0.176400000000     0.496400000000     0.731100000000     0          
C113     C      0.239100000000     0.502900000000     0.795900000000     0          
C114     C      0.300200000000     0.501400000000     0.806900000000     0          
H115     H      0.314500000000     0.501100000000     0.847200000000     0          
C116     C      0.341300000000     0.500400000000     0.759100000000     0          
H117     H      0.383400000000     0.499100000000     0.766500000000     0          
Zr118    Zr     0.612260000000     0.499980000000     0.499970000000     0          
O119     O      0.555800000000     0.444680000000     0.555570000000     0          
O120     O      0.411990000000     0.661710000000     0.499780000000     0          
O121     O      0.587470000000     0.661980000000     0.500330000000     0          
O122     O      0.338280000000     0.587890000000     0.499960000000     0          
O123     O      0.661720000000     0.587790000000     0.500060000000     0          
C124     C      0.356500000000     0.642500000000     0.499700000000     0          
C125     C      0.642000000000     0.643800000000     0.500200000000     0          
C126     C      0.053500000000     0.870500000000     0.493600000000     0          
C127     C      0.001000000000     0.840500000000     0.499000000000     0          
H128     H      0.001400000000     0.797700000000     0.498700000000     0          
C129     C      0.945900000000     0.870500000000     0.505000000000     0          
C130     C      0.942700000000     0.936700000000     0.503900000000     0          
C131     C      0.999800000000     0.967600000000     0.501200000000     0          
C132     C      0.058100000000     0.934700000000     0.493500000000     0          
C133     C      0.890200000000     0.837600000000     0.501800000000     0          
C134     C      0.844400000000     0.805900000000     0.498100000000     0          
C135     C      0.795900000000     0.764700000000     0.498100000000     0          
C136     C      0.736900000000     0.784100000000     0.504600000000     0          
H137     H      0.728700000000     0.825600000000     0.511000000000     0          
C138     C      0.689400000000     0.743000000000     0.501900000000     0          
H139     H      0.648900000000     0.756700000000     0.500500000000     0          
C140     C      0.702400000000     0.681600000000     0.501200000000     0          
C141     C      0.760600000000     0.657700000000     0.502100000000     0          
H142     H      0.768500000000     0.615700000000     0.504400000000     0          
C143     C      0.807700000000     0.702200000000     0.499000000000     0          
H144     H      0.848400000000     0.688900000000     0.497600000000     0          
C145     C      0.108500000000     0.834600000000     0.500700000000     0          
C146     C      0.153600000000     0.805500000000     0.499300000000     0          
C147     C      0.297400000000     0.680200000000     0.498900000000     0          
C148     C      0.309700000000     0.740600000000     0.498700000000     0          
H149     H      0.350100000000     0.754600000000     0.497500000000     0          
C150     C      0.261400000000     0.781600000000     0.500300000000     0          
H151     H      0.268900000000     0.823600000000     0.503600000000     0          
C152     C      0.204100000000     0.760900000000     0.497100000000     0          
C153     C      0.193100000000     0.699800000000     0.498600000000     0          
H154     H      0.152800000000     0.685500000000     0.498900000000     0          
C155     C      0.240900000000     0.658700000000     0.499600000000     0          
H156     H      0.233500000000     0.616600000000     0.500900000000     0          
Zr157    Zr     0.499970000000     0.612260000000     0.499980000000     0          
O158     O      0.555570000000     0.555800000000     0.444680000000     0          
O159     O      0.499780000000     0.411990000000     0.661710000000     0          
O160     O      0.500330000000     0.587470000000     0.661980000000     0          
O161     O      0.499960000000     0.338280000000     0.587890000000     0          
O162     O      0.500060000000     0.661720000000     0.587790000000     0          
C163     C      0.499700000000     0.356500000000     0.642500000000     0          
C164     C      0.500200000000     0.642000000000     0.643800000000     0          
C165     C      0.493600000000     0.053500000000     0.870500000000     0          
C166     C      0.499000000000     0.001000000000     0.840500000000     0          
H167     H      0.498700000000     0.001400000000     0.797700000000     0          
C168     C      0.505000000000     0.945900000000     0.870500000000     0          
C169     C      0.503900000000     0.942700000000     0.936700000000     0          
C170     C      0.501200000000     0.999800000000     0.967600000000     0          
C171     C      0.493500000000     0.058100000000     0.934700000000     0          
C172     C      0.501800000000     0.890200000000     0.837600000000     0          
C173     C      0.498100000000     0.844400000000     0.805900000000     0          
C174     C      0.498100000000     0.795900000000     0.764700000000     0          
C175     C      0.504600000000     0.736900000000     0.784100000000     0          
H176     H      0.511000000000     0.728700000000     0.825600000000     0          
C177     C      0.501900000000     0.689400000000     0.743000000000     0          
H178     H      0.500500000000     0.648900000000     0.756700000000     0          
C179     C      0.501200000000     0.702400000000     0.681600000000     0          
C180     C      0.502100000000     0.760600000000     0.657700000000     0          
H181     H      0.504400000000     0.768500000000     0.615700000000     0          
C182     C      0.499000000000     0.807700000000     0.702200000000     0          
H183     H      0.497600000000     0.848400000000     0.688900000000     0          
C184     C      0.500700000000     0.108500000000     0.834600000000     0          
C185     C      0.499300000000     0.153600000000     0.805500000000     0          
C186     C      0.498900000000     0.297400000000     0.680200000000     0          
C187     C      0.498700000000     0.309700000000     0.740600000000     0          
H188     H      0.497500000000     0.350100000000     0.754600000000     0          
C189     C      0.500300000000     0.261400000000     0.781600000000     0          
H190     H      0.503600000000     0.268900000000     0.823600000000     0          
C191     C      0.497100000000     0.204100000000     0.760900000000     0          
C192     C      0.498600000000     0.193100000000     0.699800000000     0          
H193     H      0.498900000000     0.152800000000     0.685500000000     0          
C194     C      0.499600000000     0.240900000000     0.658700000000     0          
H195     H      0.500900000000     0.233500000000     0.616600000000     0          
Zr196    Zr     0.499980000000     0.499970000000     0.612260000000     0          
O197     O      0.444680000000     0.555570000000     0.555800000000     0          
O198     O      0.661710000000     0.499780000000     0.411990000000     0          
O199     O      0.661980000000     0.500330000000     0.587470000000     0          
O200     O      0.587890000000     0.499960000000     0.338280000000     0          
O201     O      0.587790000000     0.500060000000     0.661720000000     0          
C202     C      0.642500000000     0.499700000000     0.356500000000     0          
C203     C      0.643800000000     0.500200000000     0.642000000000     0          
C204     C      0.870500000000     0.493600000000     0.053500000000     0          
C205     C      0.840500000000     0.499000000000     0.001000000000     0          
H206     H      0.797700000000     0.498700000000     0.001400000000     0          
C207     C      0.870500000000     0.505000000000     0.945900000000     0          
C208     C      0.936700000000     0.503900000000     0.942700000000     0          
C209     C      0.967600000000     0.501200000000     0.999800000000     0          
C210     C      0.934700000000     0.493500000000     0.058100000000     0          
C211     C      0.837600000000     0.501800000000     0.890200000000     0          
C212     C      0.805900000000     0.498100000000     0.844400000000     0          
C213     C      0.764700000000     0.498100000000     0.795900000000     0          
C214     C      0.784100000000     0.504600000000     0.736900000000     0          
H215     H      0.825600000000     0.511000000000     0.728700000000     0          
C216     C      0.743000000000     0.501900000000     0.689400000000     0          
H217     H      0.756700000000     0.500500000000     0.648900000000     0          
C218     C      0.681600000000     0.501200000000     0.702400000000     0          
C219     C      0.657700000000     0.502100000000     0.760600000000     0          
H220     H      0.615700000000     0.504400000000     0.768500000000     0          
C221     C      0.702200000000     0.499000000000     0.807700000000     0          
H222     H      0.688900000000     0.497600000000     0.848400000000     0          
C223     C      0.834600000000     0.500700000000     0.108500000000     0          
C224     C      0.805500000000     0.499300000000     0.153600000000     0          
C225     C      0.680200000000     0.498900000000     0.297400000000     0          
C226     C      0.740600000000     0.498700000000     0.309700000000     0          
H227     H      0.754600000000     0.497500000000     0.350100000000     0          
C228     C      0.781600000000     0.500300000000     0.261400000000     0          
H229     H      0.823600000000     0.503600000000     0.268900000000     0          
C230     C      0.760900000000     0.497100000000     0.204100000000     0          
C231     C      0.699800000000     0.498600000000     0.193100000000     0          
H232     H      0.685500000000     0.498900000000     0.152800000000     0          
C233     C      0.658700000000     0.499600000000     0.240900000000     0          
H234     H      0.616600000000     0.500900000000     0.233500000000     0          
O235     O      0.444360000000     0.444360000000     0.444360000000     0          
O236     O      0.555640000000     0.555640000000     0.555640000000     0          
H237     H      0.896620000000     0.960460000000     0.505180000000     0          
H238     H      0.104390000000     0.957370000000     0.487760000000     0          
H239     H      0.895610000000     0.042630000000     0.512240000000     0          
H240     H      0.103380000000     0.039540000000     0.494820000000     0          
H241     H      0.505180000000     0.896620000000     0.960460000000     0          
H242     H      0.487760000000     0.104390000000     0.957370000000     0          
H243     H      0.512240000000     0.895610000000     0.042630000000     0          
H244     H      0.494820000000     0.103380000000     0.039540000000     0          
H245     H      0.042630000000     0.512240000000     0.895610000000     0          
H246     H      0.960460000000     0.505180000000     0.896620000000     0          
H247     H      0.957370000000     0.487760000000     0.104390000000     0          
H248     H      0.039540000000     0.494820000000     0.103380000000     0          


