data_NEHTAY

_audit_creation_method RASPA-1.0
_audit_creation_date 2020-11-2
_audit_author_name 'Rocio Bueno-Perez'

_cell_length_a    23.0991
_cell_length_b    23.0991
_cell_length_c    18.8485
_cell_angle_alpha 90
_cell_angle_beta  90
_cell_angle_gamma 90
_cell_volume      10057

_symmetry_cell_setting          triclinic
_symmetry_space_group_name_Hall 'P 1'
_symmetry_space_group_name_H-M  'P 1'
_symmetry_Int_Tables_number     1

_symmetry_equiv_pos_as_xyz 'x,y,z'

loop_
_atom_site_label
_atom_site_type_symbol
_atom_site_fract_x
_atom_site_fract_y
_atom_site_fract_z
_atom_site_charge
O1       O      0.343400000000     0.059200000000     0.072100000000     0          
O2       O      0.418000000000     0.110900000000     0.135400000000     0          
C3       C      0.239400000000     0.197600000000     0.232300000000     0          
C4       C      0.225700000000     0.166800000000     0.172400000000     0          
C5       C      0.263600000000     0.134000000000     0.134100000000     0          
H6       H      0.251500000000     0.113600000000     0.093000000000     0          
C7       C      0.321100000000     0.131400000000     0.157700000000     0          
C8       C      0.334600000000     0.163100000000     0.218400000000     0          
H9       H      0.373400000000     0.162100000000     0.235200000000     0          
C10      C      0.295200000000     0.195600000000     0.255300000000     0          
C11      C      0.364800000000     0.097400000000     0.119300000000     0          
H12      H      0.369200000000     0.453300000000     0.957500000000     0          
F13      F      0.331400000000     0.281000000000     0.322400000000     0          
F14      F      0.277200000000     0.233700000000     0.374800000000     0          
F15      F      0.355800000000     0.206700000000     0.362400000000     0          
H16      H      0.186800000000     0.168400000000     0.156300000000     0          
C17      C      0.313900000000     0.226700000000     0.319800000000     0          
F18      F      0.878700000000     0.840700000000     0.189100000000     0          
F19      F      0.849600000000     0.779700000000     0.113200000000     0          
F20      F      0.847000000000     0.870200000000     0.089100000000     0          
O21      O      0.656600000000     0.940800000000     0.072100000000     0          
O22      O      0.582000000000     0.889100000000     0.135400000000     0          
C23      C      0.760600000000     0.802400000000     0.232300000000     0          
C24      C      0.774300000000     0.833200000000     0.172400000000     0          
C25      C      0.736400000000     0.866000000000     0.134100000000     0          
H26      H      0.748500000000     0.886400000000     0.093000000000     0          
C27      C      0.678900000000     0.868600000000     0.157700000000     0          
C28      C      0.665400000000     0.836900000000     0.218400000000     0          
H29      H      0.626600000000     0.837900000000     0.235200000000     0          
C30      C      0.704800000000     0.804400000000     0.255300000000     0          
H31      H      0.693300000000     0.783500000000     0.296400000000     0          
C32      C      0.635200000000     0.902600000000     0.119300000000     0          
C33      C      0.835200000000     0.832500000000     0.142800000000     0          
H34      H      0.630800000000     0.546700000000     0.957500000000     0          
O35      O      0.940800000000     0.343400000000     0.572100000000     0          
O36      O      0.889100000000     0.418000000000     0.635400000000     0          
C37      C      0.802400000000     0.239400000000     0.732300000000     0          
C38      C      0.833200000000     0.225700000000     0.672400000000     0          
C39      C      0.866000000000     0.263600000000     0.634100000000     0          
H40      H      0.886400000000     0.251500000000     0.593000000000     0          
C41      C      0.868600000000     0.321100000000     0.657700000000     0          
C42      C      0.836900000000     0.334600000000     0.718400000000     0          
H43      H      0.837900000000     0.373400000000     0.735200000000     0          
C44      C      0.804400000000     0.295200000000     0.755300000000     0          
C45      C      0.902600000000     0.364800000000     0.619300000000     0          
H46      H      0.546700000000     0.369200000000     0.457500000000     0          
F47      F      0.719000000000     0.331400000000     0.822400000000     0          
F48      F      0.766300000000     0.277200000000     0.874800000000     0          
F49      F      0.793300000000     0.355800000000     0.862400000000     0          
H50      H      0.831600000000     0.186800000000     0.656300000000     0          
C51      C      0.773300000000     0.313900000000     0.819800000000     0          
O52      O      0.059200000000     0.656600000000     0.572100000000     0          
O53      O      0.110900000000     0.582000000000     0.635400000000     0          
C54      C      0.197600000000     0.760600000000     0.732300000000     0          
C55      C      0.166800000000     0.774300000000     0.672400000000     0          
C56      C      0.134000000000     0.736400000000     0.634100000000     0          
H57      H      0.113600000000     0.748500000000     0.593000000000     0          
C58      C      0.131400000000     0.678900000000     0.657700000000     0          
C59      C      0.163100000000     0.665400000000     0.718400000000     0          
H60      H      0.162100000000     0.626600000000     0.735200000000     0          
C61      C      0.195600000000     0.704800000000     0.755300000000     0          
C62      C      0.097400000000     0.635200000000     0.619300000000     0          
H63      H      0.453300000000     0.630800000000     0.457500000000     0          
F64      F      0.281000000000     0.668600000000     0.822400000000     0          
F65      F      0.233700000000     0.722800000000     0.874800000000     0          
F66      F      0.206700000000     0.644200000000     0.862400000000     0          
H67      H      0.168400000000     0.813200000000     0.656300000000     0          
C68      C      0.226700000000     0.686100000000     0.819800000000     0          
O69      O      0.656600000000     0.059200000000     0.927900000000     0          
O70      O      0.582000000000     0.110900000000     0.864600000000     0          
C71      C      0.760600000000     0.197600000000     0.767700000000     0          
C72      C      0.774300000000     0.166800000000     0.827600000000     0          
C73      C      0.736400000000     0.134000000000     0.865900000000     0          
H74      H      0.748500000000     0.113600000000     0.907000000000     0          
C75      C      0.678900000000     0.131400000000     0.842300000000     0          
C76      C      0.665400000000     0.163100000000     0.781600000000     0          
H77      H      0.626600000000     0.162100000000     0.764800000000     0          
C78      C      0.704800000000     0.195600000000     0.744700000000     0          
C79      C      0.635200000000     0.097400000000     0.880700000000     0          
F80      F      0.668600000000     0.281000000000     0.677600000000     0          
F81      F      0.722800000000     0.233700000000     0.625200000000     0          
F82      F      0.644200000000     0.206700000000     0.637600000000     0          
H83      H      0.813200000000     0.168400000000     0.843700000000     0          
C84      C      0.686100000000     0.226700000000     0.680200000000     0          
O85      O      0.343400000000     0.940800000000     0.927900000000     0          
O86      O      0.418000000000     0.889100000000     0.864600000000     0          
C87      C      0.239400000000     0.802400000000     0.767700000000     0          
C88      C      0.225700000000     0.833200000000     0.827600000000     0          
C89      C      0.263600000000     0.866000000000     0.865900000000     0          
H90      H      0.251500000000     0.886400000000     0.907000000000     0          
C91      C      0.321100000000     0.868600000000     0.842300000000     0          
C92      C      0.334600000000     0.836900000000     0.781600000000     0          
H93      H      0.373400000000     0.837900000000     0.764800000000     0          
C94      C      0.295200000000     0.804400000000     0.744700000000     0          
C95      C      0.364800000000     0.902600000000     0.880700000000     0          
F96      F      0.331400000000     0.719000000000     0.677600000000     0          
F97      F      0.277200000000     0.766300000000     0.625200000000     0          
F98      F      0.355800000000     0.793300000000     0.637600000000     0          
H99      H      0.186800000000     0.831600000000     0.843700000000     0          
C100     C      0.313900000000     0.773300000000     0.680200000000     0          
F101     F      0.159300000000     0.121300000000     0.310900000000     0          
F102     F      0.220300000000     0.150400000000     0.386800000000     0          
F103     F      0.129800000000     0.153000000000     0.410900000000     0          
O104     O      0.059200000000     0.343400000000     0.427900000000     0          
O105     O      0.110900000000     0.418000000000     0.364600000000     0          
C106     C      0.197600000000     0.239400000000     0.267700000000     0          
C107     C      0.166800000000     0.225700000000     0.327600000000     0          
C108     C      0.134000000000     0.263600000000     0.365900000000     0          
H109     H      0.113600000000     0.251500000000     0.407000000000     0          
C110     C      0.131400000000     0.321100000000     0.342300000000     0          
C111     C      0.163100000000     0.334600000000     0.281600000000     0          
H112     H      0.162100000000     0.373400000000     0.264800000000     0          
C113     C      0.195600000000     0.295200000000     0.244700000000     0          
H114     H      0.216500000000     0.306700000000     0.203600000000     0          
C115     C      0.097400000000     0.364800000000     0.380700000000     0          
C116     C      0.167500000000     0.164800000000     0.357200000000     0          
F117     F      0.840700000000     0.878700000000     0.310900000000     0          
F118     F      0.779700000000     0.849600000000     0.386800000000     0          
F119     F      0.870200000000     0.847000000000     0.410900000000     0          
O120     O      0.940800000000     0.656600000000     0.427900000000     0          
O121     O      0.889100000000     0.582000000000     0.364600000000     0          
C122     C      0.802400000000     0.760600000000     0.267700000000     0          
C123     C      0.833200000000     0.774300000000     0.327600000000     0          
C124     C      0.866000000000     0.736400000000     0.365900000000     0          
H125     H      0.886400000000     0.748500000000     0.407000000000     0          
C126     C      0.868600000000     0.678900000000     0.342300000000     0          
C127     C      0.836900000000     0.665400000000     0.281600000000     0          
H128     H      0.837900000000     0.626600000000     0.264800000000     0          
C129     C      0.804400000000     0.704800000000     0.244700000000     0          
H130     H      0.783500000000     0.693300000000     0.203600000000     0          
C131     C      0.902600000000     0.635200000000     0.380700000000     0          
C132     C      0.832500000000     0.835200000000     0.357200000000     0          
F133     F      0.878700000000     0.840700000000     0.810900000000     0          
F134     F      0.849600000000     0.779700000000     0.886800000000     0          
F135     F      0.847000000000     0.870200000000     0.910900000000     0          
O136     O      0.656600000000     0.940800000000     0.927900000000     0          
O137     O      0.582000000000     0.889100000000     0.864600000000     0          
C138     C      0.760600000000     0.802400000000     0.767700000000     0          
C139     C      0.774300000000     0.833200000000     0.827600000000     0          
C140     C      0.736400000000     0.866000000000     0.865900000000     0          
H141     H      0.748500000000     0.886400000000     0.907000000000     0          
C142     C      0.678900000000     0.868600000000     0.842300000000     0          
C143     C      0.665400000000     0.836900000000     0.781600000000     0          
H144     H      0.626600000000     0.837900000000     0.764800000000     0          
C145     C      0.704800000000     0.804400000000     0.744700000000     0          
H146     H      0.693300000000     0.783500000000     0.703600000000     0          
C147     C      0.635200000000     0.902600000000     0.880700000000     0          
C148     C      0.835200000000     0.832500000000     0.857200000000     0          
C149     C      0.521000000000     0.047800000000     0.576700000000     0          
C150     C      0.521000000000     0.047700000000     0.650600000000     0          
H151     H      0.630800000000     0.546700000000     0.042500000000     0          
H152     H      0.535500000000     0.080500000000     0.676000000000     0          
F153     F      0.561400000000     0.139700000000     0.586800000000     0          
C154     C      0.544100000000     0.100700000000     0.538400000000     0          
O155     O      0.343400000000     0.059200000000     0.927900000000     0          
O156     O      0.418000000000     0.110900000000     0.864600000000     0          
C157     C      0.239400000000     0.197600000000     0.767700000000     0          
C158     C      0.225700000000     0.166800000000     0.827600000000     0          
C159     C      0.263600000000     0.134000000000     0.865900000000     0          
H160     H      0.251500000000     0.113600000000     0.907000000000     0          
C161     C      0.321100000000     0.131400000000     0.842300000000     0          
C162     C      0.334600000000     0.163100000000     0.781600000000     0          
H163     H      0.373400000000     0.162100000000     0.764800000000     0          
C164     C      0.295200000000     0.195600000000     0.744700000000     0          
C165     C      0.364800000000     0.097400000000     0.880700000000     0          
C166     C      0.479000000000     0.952200000000     0.576700000000     0          
C167     C      0.479000000000     0.952300000000     0.650600000000     0          
H168     H      0.369200000000     0.453300000000     0.042500000000     0          
F169     F      0.331400000000     0.281000000000     0.677600000000     0          
F170     F      0.277200000000     0.233700000000     0.625200000000     0          
F171     F      0.355800000000     0.206700000000     0.637600000000     0          
H172     H      0.186800000000     0.168400000000     0.843700000000     0          
C173     C      0.313900000000     0.226700000000     0.680200000000     0          
H174     H      0.464600000000     0.919500000000     0.551500000000     0          
H175     H      0.464500000000     0.919500000000     0.676000000000     0          
F176     F      0.159300000000     0.878700000000     0.310900000000     0          
F177     F      0.220300000000     0.849600000000     0.386800000000     0          
F178     F      0.129800000000     0.847000000000     0.410900000000     0          
O179     O      0.059200000000     0.656600000000     0.427900000000     0          
O180     O      0.110900000000     0.582000000000     0.364600000000     0          
C181     C      0.197600000000     0.760600000000     0.267700000000     0          
C182     C      0.166800000000     0.774300000000     0.327600000000     0          
C183     C      0.134000000000     0.736400000000     0.365900000000     0          
H184     H      0.113600000000     0.748500000000     0.407000000000     0          
C185     C      0.131400000000     0.678900000000     0.342300000000     0          
C186     C      0.163100000000     0.665400000000     0.281600000000     0          
H187     H      0.162100000000     0.626600000000     0.264800000000     0          
C188     C      0.195600000000     0.704800000000     0.244700000000     0          
H189     H      0.216500000000     0.693300000000     0.203600000000     0          
C190     C      0.097400000000     0.635200000000     0.380700000000     0          
C191     C      0.167500000000     0.835200000000     0.357200000000     0          
C192     C      0.952200000000     0.521000000000     0.076700000000     0          
C193     C      0.952300000000     0.521000000000     0.150600000000     0          
H194     H      0.453300000000     0.630800000000     0.542500000000     0          
H195     H      0.919500000000     0.535500000000     0.176000000000     0          
F196     F      0.860300000000     0.561400000000     0.086800000000     0          
C197     C      0.899300000000     0.544100000000     0.038400000000     0          
F198     F      0.840700000000     0.121300000000     0.310900000000     0          
F199     F      0.779700000000     0.150400000000     0.386800000000     0          
F200     F      0.870200000000     0.153000000000     0.410900000000     0          
O201     O      0.940800000000     0.343400000000     0.427900000000     0          
O202     O      0.889100000000     0.418000000000     0.364600000000     0          
C203     C      0.802400000000     0.239400000000     0.267700000000     0          
C204     C      0.833200000000     0.225700000000     0.327600000000     0          
C205     C      0.866000000000     0.263600000000     0.365900000000     0          
H206     H      0.886400000000     0.251500000000     0.407000000000     0          
C207     C      0.868600000000     0.321100000000     0.342300000000     0          
C208     C      0.836900000000     0.334600000000     0.281600000000     0          
H209     H      0.837900000000     0.373400000000     0.264800000000     0          
C210     C      0.804400000000     0.295200000000     0.244700000000     0          
H211     H      0.783500000000     0.306700000000     0.203600000000     0          
C212     C      0.902600000000     0.364800000000     0.380700000000     0          
C213     C      0.832500000000     0.164800000000     0.357200000000     0          
C214     C      0.047800000000     0.479000000000     0.076700000000     0          
C215     C      0.047700000000     0.479000000000     0.150600000000     0          
H216     H      0.546700000000     0.369200000000     0.542500000000     0          
H217     H      0.080500000000     0.464600000000     0.051500000000     0          
H218     H      0.080500000000     0.464500000000     0.176000000000     0          
F219     F      0.121300000000     0.840700000000     0.189100000000     0          
F220     F      0.150400000000     0.779700000000     0.113200000000     0          
F221     F      0.153000000000     0.870200000000     0.089100000000     0          
O222     O      0.343400000000     0.940800000000     0.072100000000     0          
O223     O      0.418000000000     0.889100000000     0.135400000000     0          
C224     C      0.239400000000     0.802400000000     0.232300000000     0          
C225     C      0.225700000000     0.833200000000     0.172400000000     0          
C226     C      0.263600000000     0.866000000000     0.134100000000     0          
H227     H      0.251500000000     0.886400000000     0.093000000000     0          
C228     C      0.321100000000     0.868600000000     0.157700000000     0          
C229     C      0.334600000000     0.836900000000     0.218400000000     0          
H230     H      0.373400000000     0.837900000000     0.235200000000     0          
C231     C      0.295200000000     0.804400000000     0.255300000000     0          
H232     H      0.306700000000     0.783500000000     0.296400000000     0          
C233     C      0.364800000000     0.902600000000     0.119300000000     0          
C234     C      0.164800000000     0.832500000000     0.142800000000     0          
C235     C      0.479000000000     0.047800000000     0.423300000000     0          
C236     C      0.479000000000     0.047700000000     0.349400000000     0          
H237     H      0.464600000000     0.080500000000     0.448500000000     0          
H238     H      0.464500000000     0.080500000000     0.324000000000     0          
O239     O      0.656600000000     0.059200000000     0.072100000000     0          
O240     O      0.582000000000     0.110900000000     0.135400000000     0          
C241     C      0.760600000000     0.197600000000     0.232300000000     0          
C242     C      0.774300000000     0.166800000000     0.172400000000     0          
C243     C      0.736400000000     0.134000000000     0.134100000000     0          
H244     H      0.748500000000     0.113600000000     0.093000000000     0          
C245     C      0.678900000000     0.131400000000     0.157700000000     0          
C246     C      0.665400000000     0.163100000000     0.218400000000     0          
H247     H      0.626600000000     0.162100000000     0.235200000000     0          
C248     C      0.704800000000     0.195600000000     0.255300000000     0          
C249     C      0.635200000000     0.097400000000     0.119300000000     0          
C250     C      0.521000000000     0.952200000000     0.423300000000     0          
C251     C      0.521000000000     0.952300000000     0.349400000000     0          
F252     F      0.668600000000     0.281000000000     0.322400000000     0          
F253     F      0.722800000000     0.233700000000     0.374800000000     0          
F254     F      0.644200000000     0.206700000000     0.362400000000     0          
H255     H      0.813200000000     0.168400000000     0.156300000000     0          
C256     C      0.686100000000     0.226700000000     0.319800000000     0          
H257     H      0.535500000000     0.919500000000     0.324000000000     0          
F258     F      0.561400000000     0.860300000000     0.413200000000     0          
C259     C      0.544100000000     0.899300000000     0.461600000000     0          
O260     O      0.940800000000     0.656600000000     0.572100000000     0          
O261     O      0.889100000000     0.582000000000     0.635400000000     0          
C262     C      0.802400000000     0.760600000000     0.732300000000     0          
C263     C      0.833200000000     0.774300000000     0.672400000000     0          
C264     C      0.866000000000     0.736400000000     0.634100000000     0          
H265     H      0.886400000000     0.748500000000     0.593000000000     0          
C266     C      0.868600000000     0.678900000000     0.657700000000     0          
C267     C      0.836900000000     0.665400000000     0.718400000000     0          
H268     H      0.837900000000     0.626600000000     0.735200000000     0          
C269     C      0.804400000000     0.704800000000     0.755300000000     0          
C270     C      0.902600000000     0.635200000000     0.619300000000     0          
C271     C      0.047800000000     0.521000000000     0.923300000000     0          
C272     C      0.047700000000     0.521000000000     0.849400000000     0          
F273     F      0.719000000000     0.668600000000     0.822400000000     0          
F274     F      0.766300000000     0.722800000000     0.874800000000     0          
F275     F      0.793300000000     0.644200000000     0.862400000000     0          
H276     H      0.831600000000     0.813200000000     0.656300000000     0          
C277     C      0.773300000000     0.686100000000     0.819800000000     0          
H278     H      0.080500000000     0.535500000000     0.824000000000     0          
F279     F      0.139700000000     0.561400000000     0.913200000000     0          
C280     C      0.100700000000     0.544100000000     0.961600000000     0          
O281     O      0.059200000000     0.343400000000     0.572100000000     0          
O282     O      0.110900000000     0.418000000000     0.635400000000     0          
C283     C      0.197600000000     0.239400000000     0.732300000000     0          
C284     C      0.166800000000     0.225700000000     0.672400000000     0          
C285     C      0.134000000000     0.263600000000     0.634100000000     0          
H286     H      0.113600000000     0.251500000000     0.593000000000     0          
C287     C      0.131400000000     0.321100000000     0.657700000000     0          
C288     C      0.163100000000     0.334600000000     0.718400000000     0          
H289     H      0.162100000000     0.373400000000     0.735200000000     0          
C290     C      0.195600000000     0.295200000000     0.755300000000     0          
C291     C      0.097400000000     0.364800000000     0.619300000000     0          
C292     C      0.952200000000     0.479000000000     0.923300000000     0          
C293     C      0.952300000000     0.479000000000     0.849400000000     0          
F294     F      0.281000000000     0.331400000000     0.822400000000     0          
F295     F      0.233700000000     0.277200000000     0.874800000000     0          
F296     F      0.206700000000     0.355800000000     0.862400000000     0          
H297     H      0.168400000000     0.186800000000     0.656300000000     0          
C298     C      0.226700000000     0.313900000000     0.819800000000     0          
H299     H      0.919500000000     0.464600000000     0.948500000000     0          
H300     H      0.919500000000     0.464500000000     0.824000000000     0          
Zr301    Zr     0.392000000000     0.000000000000     0.000000000000     0          
Zr302    Zr     0.608000000000     0.000000000000     0.000000000000     0          
Zr303    Zr     0.000000000000     0.392000000000     0.500000000000     0          
Zr304    Zr     0.000000000000     0.608000000000     0.500000000000     0          
Zr305    Zr     0.500000000000     0.075460000000     0.092370000000     0          
O306     O      0.500000000000     0.167900000000     0.057900000000     0          
O307     O      0.500000000000     0.051300000000     0.205300000000     0          
C308     C      0.500000000000     0.345700000000     0.063900000000     0          
H309     H      0.500000000000     0.366400000000     0.107500000000     0          
C310     C      0.500000000000     0.285400000000     0.063800000000     0          
H311     H      0.500000000000     0.264900000000     0.107500000000     0          
Zr312    Zr     0.500000000000     0.924540000000     0.092370000000     0          
O313     O      0.500000000000     0.832100000000     0.057900000000     0          
O314     O      0.500000000000     0.948700000000     0.205300000000     0          
C315     C      0.500000000000     0.654300000000     0.063900000000     0          
H316     H      0.500000000000     0.633600000000     0.107500000000     0          
C317     C      0.500000000000     0.714600000000     0.063800000000     0          
H318     H      0.500000000000     0.735100000000     0.107500000000     0          
Zr319    Zr     0.924540000000     0.500000000000     0.592370000000     0          
O320     O      0.832100000000     0.500000000000     0.557900000000     0          
O321     O      0.948700000000     0.500000000000     0.705300000000     0          
C322     C      0.654300000000     0.500000000000     0.563900000000     0          
H323     H      0.633600000000     0.500000000000     0.607500000000     0          
C324     C      0.714600000000     0.500000000000     0.563800000000     0          
H325     H      0.735100000000     0.500000000000     0.607500000000     0          
Zr326    Zr     0.075460000000     0.500000000000     0.592370000000     0          
O327     O      0.167900000000     0.500000000000     0.557900000000     0          
O328     O      0.051300000000     0.500000000000     0.705300000000     0          
C329     C      0.345700000000     0.500000000000     0.563900000000     0          
H330     H      0.366400000000     0.500000000000     0.607500000000     0          
C331     C      0.285400000000     0.500000000000     0.563800000000     0          
H332     H      0.264900000000     0.500000000000     0.607500000000     0          
Zr333    Zr     0.500000000000     0.075460000000     0.907630000000     0          
O334     O      0.500000000000     0.167900000000     0.942100000000     0          
O335     O      0.500000000000     0.051300000000     0.794700000000     0          
C336     C      0.500000000000     0.345700000000     0.936100000000     0          
H337     H      0.500000000000     0.366400000000     0.892500000000     0          
C338     C      0.500000000000     0.285400000000     0.936200000000     0          
H339     H      0.500000000000     0.264900000000     0.892500000000     0          
Zr340    Zr     0.500000000000     0.924540000000     0.907630000000     0          
O341     O      0.500000000000     0.832100000000     0.942100000000     0          
O342     O      0.500000000000     0.948700000000     0.794700000000     0          
C343     C      0.500000000000     0.654300000000     0.936100000000     0          
H344     H      0.500000000000     0.633600000000     0.892500000000     0          
C345     C      0.500000000000     0.714600000000     0.936200000000     0          
H346     H      0.500000000000     0.735100000000     0.892500000000     0          
Zr347    Zr     0.075460000000     0.500000000000     0.407630000000     0          
O348     O      0.167900000000     0.500000000000     0.442100000000     0          
O349     O      0.051300000000     0.500000000000     0.294700000000     0          
C350     C      0.345700000000     0.500000000000     0.436100000000     0          
H351     H      0.366400000000     0.500000000000     0.392500000000     0          
C352     C      0.285400000000     0.500000000000     0.436200000000     0          
H353     H      0.264900000000     0.500000000000     0.392500000000     0          
Zr354    Zr     0.924540000000     0.500000000000     0.407630000000     0          
O355     O      0.832100000000     0.500000000000     0.442100000000     0          
O356     O      0.948700000000     0.500000000000     0.294700000000     0          
C357     C      0.654300000000     0.500000000000     0.436100000000     0          
H358     H      0.633600000000     0.500000000000     0.392500000000     0          
C359     C      0.714600000000     0.500000000000     0.436200000000     0          
H360     H      0.735100000000     0.500000000000     0.392500000000     0          
O361     O      0.446200000000     0.075200000000     0.000000000000     0          
C362     C      0.449400000000     0.469170000000     0.000000000000     0          
C363     C      0.390600000000     0.441300000000     0.000000000000     0          
H364     H      0.394900000000     0.399100000000     0.000000000000     0          
O365     O      0.553800000000     0.924800000000     0.000000000000     0          
C366     C      0.550600000000     0.530830000000     0.000000000000     0          
C367     C      0.609400000000     0.558700000000     0.000000000000     0          
H368     H      0.605100000000     0.600900000000     0.000000000000     0          
O369     O      0.924800000000     0.446200000000     0.500000000000     0          
C370     C      0.530830000000     0.449400000000     0.500000000000     0          
C371     C      0.558700000000     0.390600000000     0.500000000000     0          
H372     H      0.600900000000     0.394900000000     0.500000000000     0          
O373     O      0.075200000000     0.553800000000     0.500000000000     0          
C374     C      0.469170000000     0.550600000000     0.500000000000     0          
C375     C      0.441300000000     0.609400000000     0.500000000000     0          
H376     H      0.399100000000     0.605100000000     0.500000000000     0          
O377     O      0.553800000000     0.075200000000     0.000000000000     0          
C378     C      0.550600000000     0.469170000000     0.000000000000     0          
H379     H      0.586300000000     0.448700000000     0.000000000000     0          
O380     O      0.446200000000     0.924800000000     0.000000000000     0          
C381     C      0.449400000000     0.530830000000     0.000000000000     0          
H382     H      0.413700000000     0.551300000000     0.000000000000     0          
O383     O      0.075200000000     0.446200000000     0.500000000000     0          
C384     C      0.469170000000     0.449400000000     0.500000000000     0          
H385     H      0.448700000000     0.413700000000     0.500000000000     0          
O386     O      0.924800000000     0.553800000000     0.500000000000     0          
C387     C      0.530830000000     0.550600000000     0.500000000000     0          
H388     H      0.551300000000     0.586300000000     0.500000000000     0          
O389     O      0.446800000000     0.000000000000     0.091200000000     0          
O390     O      0.553200000000     0.000000000000     0.091200000000     0          
O391     O      0.000000000000     0.446800000000     0.591200000000     0          
O392     O      0.000000000000     0.553200000000     0.591200000000     0          
O393     O      0.553200000000     0.000000000000     0.908800000000     0          
O394     O      0.446800000000     0.000000000000     0.908800000000     0          
O395     O      0.000000000000     0.446800000000     0.408800000000     0          
O396     O      0.000000000000     0.553200000000     0.408800000000     0          
C397     C      0.500000000000     0.439600000000     0.000000000000     0          
C398     C      0.500000000000     0.375500000000     0.000000000000     0          
C399     C      0.500000000000     0.255300000000     0.000000000000     0          
C400     C      0.500000000000     0.190400000000     0.000000000000     0          
C401     C      0.500000000000     0.560400000000     0.000000000000     0          
C402     C      0.500000000000     0.624500000000     0.000000000000     0          
C403     C      0.500000000000     0.744700000000     0.000000000000     0          
C404     C      0.500000000000     0.809600000000     0.000000000000     0          
C405     C      0.560400000000     0.500000000000     0.500000000000     0          
C406     C      0.624500000000     0.500000000000     0.500000000000     0          
C407     C      0.744700000000     0.500000000000     0.500000000000     0          
C408     C      0.809600000000     0.500000000000     0.500000000000     0          
C409     C      0.439600000000     0.500000000000     0.500000000000     0          
C410     C      0.375500000000     0.500000000000     0.500000000000     0          
C411     C      0.255300000000     0.500000000000     0.500000000000     0          
C412     C      0.190400000000     0.500000000000     0.500000000000     0          
C413     C      0.500000000000     0.000000000000     0.460200000000     0          
C414     C      0.500000000000     0.000000000000     0.312100000000     0          
C415     C      0.500000000000     0.000000000000     0.232700000000     0          
C416     C      0.000000000000     0.500000000000     0.960200000000     0          
C417     C      0.000000000000     0.500000000000     0.812100000000     0          
C418     C      0.000000000000     0.500000000000     0.732700000000     0          
C419     C      0.500000000000     0.000000000000     0.539800000000     0          
C420     C      0.500000000000     0.000000000000     0.687900000000     0          
C421     C      0.500000000000     0.000000000000     0.767300000000     0          
C422     C      0.000000000000     0.500000000000     0.039800000000     0          
C423     C      0.000000000000     0.500000000000     0.187900000000     0          
C424     C      0.000000000000     0.500000000000     0.267300000000     0          
F425     F      0.590200000000     0.085500000000     0.500000000000     0          
F426     F      0.914500000000     0.590200000000     0.000000000000     0          
F427     F      0.590200000000     0.914500000000     0.500000000000     0          
F428     F      0.085500000000     0.590200000000     0.000000000000     0          
F429     F      0.500000000000     0.877000000000     0.500000000000     0          
F430     F      0.500000000000     0.123000000000     0.500000000000     0          
F431     F      0.123000000000     0.500000000000     0.000000000000     0          
F432     F      0.877000000000     0.500000000000     0.000000000000     0          


