data_NEJGOB

_audit_creation_method RASPA-1.0
_audit_creation_date 2020-12-11
_audit_author_name 'Rocio Bueno-Perez'

_cell_length_a    23.1163
_cell_length_b    23.1163
_cell_length_c    18.789
_cell_angle_alpha 90
_cell_angle_beta  90
_cell_angle_gamma 90
_cell_volume      10040.2

_symmetry_cell_setting          triclinic
_symmetry_space_group_name_Hall 'P 1'
_symmetry_space_group_name_H-M  'P 1'
_symmetry_Int_Tables_number     1

_symmetry_equiv_pos_as_xyz 'x,y,z'

loop_
_atom_site_label
_atom_site_type_symbol
_atom_site_fract_x
_atom_site_fract_y
_atom_site_fract_z
_atom_site_charge
F1       F      0.165000000000     0.122700000000     0.186300000000     0          
F2       F      0.226200000000     0.153000000000     0.107900000000     0          
F3       F      0.134800000000     0.156300000000     0.085200000000     0          
O4       O      0.056600000000     0.340500000000     0.071300000000     0          
O5       O      0.112300000000     0.421500000000     0.140500000000     0          
C6       C      0.202000000000     0.238500000000     0.229000000000     0          
C7       C      0.171600000000     0.223700000000     0.168300000000     0          
C8       C      0.135600000000     0.265900000000     0.131000000000     0          
H9       H      0.114900000000     0.255300000000     0.089300000000     0          
C10      C      0.132300000000     0.322100000000     0.158000000000     0          
C11      C      0.163200000000     0.340600000000     0.221600000000     0          
H12      H      0.161400000000     0.378700000000     0.240500000000     0          
C13      C      0.197500000000     0.293400000000     0.253300000000     0          
H14      H      0.218700000000     0.302500000000     0.295100000000     0          
C15      C      0.096000000000     0.365700000000     0.120600000000     0          
C16      C      0.173800000000     0.164900000000     0.137700000000     0          
F17      F      0.835000000000     0.877300000000     0.186300000000     0          
F18      F      0.773800000000     0.847000000000     0.107900000000     0          
F19      F      0.865200000000     0.843700000000     0.085200000000     0          
O20      O      0.943400000000     0.659500000000     0.071300000000     0          
O21      O      0.887700000000     0.578500000000     0.140500000000     0          
C22      C      0.798000000000     0.761500000000     0.229000000000     0          
C23      C      0.828400000000     0.776300000000     0.168300000000     0          
C24      C      0.864400000000     0.734100000000     0.131000000000     0          
H25      H      0.885100000000     0.744700000000     0.089300000000     0          
C26      C      0.867700000000     0.677900000000     0.158000000000     0          
C27      C      0.836800000000     0.659400000000     0.221600000000     0          
H28      H      0.838600000000     0.621300000000     0.240500000000     0          
C29      C      0.802500000000     0.706600000000     0.253300000000     0          
H30      H      0.781300000000     0.697500000000     0.295100000000     0          
C31      C      0.904000000000     0.634300000000     0.120600000000     0          
C32      C      0.826200000000     0.835100000000     0.137700000000     0          
F33      F      0.877300000000     0.165000000000     0.686300000000     0          
F34      F      0.847000000000     0.226200000000     0.607900000000     0          
F35      F      0.843700000000     0.134800000000     0.585200000000     0          
O36      O      0.659500000000     0.056600000000     0.571300000000     0          
O37      O      0.578500000000     0.112300000000     0.640500000000     0          
C38      C      0.761500000000     0.202000000000     0.729000000000     0          
C39      C      0.776300000000     0.171600000000     0.668300000000     0          
C40      C      0.734100000000     0.135600000000     0.631000000000     0          
H41      H      0.744700000000     0.114900000000     0.589300000000     0          
C42      C      0.677900000000     0.132300000000     0.658000000000     0          
C43      C      0.659400000000     0.163200000000     0.721600000000     0          
H44      H      0.621300000000     0.161400000000     0.740500000000     0          
C45      C      0.706600000000     0.197500000000     0.753300000000     0          
H46      H      0.697500000000     0.218700000000     0.795100000000     0          
C47      C      0.634300000000     0.096000000000     0.620600000000     0          
C48      C      0.835100000000     0.173800000000     0.637700000000     0          
O49      O      0.340500000000     0.943400000000     0.571300000000     0          
O50      O      0.421500000000     0.887700000000     0.640500000000     0          
C51      C      0.238500000000     0.798000000000     0.729000000000     0          
C52      C      0.223700000000     0.828400000000     0.668300000000     0          
C53      C      0.265900000000     0.864400000000     0.631000000000     0          
H54      H      0.255300000000     0.885100000000     0.589300000000     0          
C55      C      0.322100000000     0.867700000000     0.658000000000     0          
C56      C      0.340600000000     0.836800000000     0.721600000000     0          
H57      H      0.378700000000     0.838600000000     0.740500000000     0          
C58      C      0.293400000000     0.802500000000     0.753300000000     0          
C59      C      0.365700000000     0.904000000000     0.620600000000     0          
F60      F      0.281200000000     0.767000000000     0.870200000000     0          
F61      F      0.364200000000     0.804600000000     0.844000000000     0          
F62      F      0.340000000000     0.720800000000     0.801000000000     0          
H63      H      0.185400000000     0.825900000000     0.650500000000     0          
C64      C      0.319700000000     0.774000000000     0.817100000000     0          
O65      O      0.943400000000     0.340500000000     0.928700000000     0          
O66      O      0.887700000000     0.421500000000     0.859500000000     0          
C67      C      0.798000000000     0.238500000000     0.771000000000     0          
C68      C      0.828400000000     0.223700000000     0.831700000000     0          
C69      C      0.864400000000     0.265900000000     0.869000000000     0          
H70      H      0.885100000000     0.255300000000     0.910700000000     0          
C71      C      0.867700000000     0.322100000000     0.842000000000     0          
C72      C      0.836800000000     0.340600000000     0.778400000000     0          
H73      H      0.838600000000     0.378700000000     0.759500000000     0          
C74      C      0.802500000000     0.293400000000     0.746700000000     0          
C75      C      0.904000000000     0.365700000000     0.879400000000     0          
F76      F      0.767000000000     0.281200000000     0.629800000000     0          
F77      F      0.804600000000     0.364200000000     0.656000000000     0          
F78      F      0.720800000000     0.340000000000     0.699000000000     0          
H79      H      0.825900000000     0.185400000000     0.849500000000     0          
C80      C      0.774000000000     0.319700000000     0.682900000000     0          
F81      F      0.165000000000     0.877300000000     0.813700000000     0          
F82      F      0.226200000000     0.847000000000     0.892100000000     0          
F83      F      0.134800000000     0.843700000000     0.914800000000     0          
O84      O      0.056600000000     0.659500000000     0.928700000000     0          
O85      O      0.112300000000     0.578500000000     0.859500000000     0          
C86      C      0.202000000000     0.761500000000     0.771000000000     0          
C87      C      0.171600000000     0.776300000000     0.831700000000     0          
C88      C      0.135600000000     0.734100000000     0.869000000000     0          
H89      H      0.114900000000     0.744700000000     0.910700000000     0          
C90      C      0.132300000000     0.677900000000     0.842000000000     0          
C91      C      0.163200000000     0.659400000000     0.778400000000     0          
H92      H      0.161400000000     0.621300000000     0.759500000000     0          
C93      C      0.197500000000     0.706600000000     0.746700000000     0          
H94      H      0.218700000000     0.697500000000     0.704900000000     0          
C95      C      0.096000000000     0.634300000000     0.879400000000     0          
C96      C      0.173800000000     0.835100000000     0.862300000000     0          
O97      O      0.340500000000     0.056600000000     0.428700000000     0          
O98      O      0.421500000000     0.112300000000     0.359500000000     0          
C99      C      0.238500000000     0.202000000000     0.271000000000     0          
C100     C      0.223700000000     0.171600000000     0.331700000000     0          
C101     C      0.265900000000     0.135600000000     0.369000000000     0          
H102     H      0.255300000000     0.114900000000     0.410700000000     0          
C103     C      0.322100000000     0.132300000000     0.342000000000     0          
C104     C      0.340600000000     0.163200000000     0.278400000000     0          
H105     H      0.378700000000     0.161400000000     0.259500000000     0          
C106     C      0.293400000000     0.197500000000     0.246700000000     0          
C107     C      0.365700000000     0.096000000000     0.379400000000     0          
F108     F      0.281200000000     0.233000000000     0.129800000000     0          
F109     F      0.364200000000     0.195400000000     0.156000000000     0          
F110     F      0.340000000000     0.279200000000     0.199000000000     0          
H111     H      0.185400000000     0.174100000000     0.349500000000     0          
C112     C      0.319700000000     0.226000000000     0.182900000000     0          
O113     O      0.659500000000     0.943400000000     0.428700000000     0          
O114     O      0.578500000000     0.887700000000     0.359500000000     0          
C115     C      0.761500000000     0.798000000000     0.271000000000     0          
C116     C      0.776300000000     0.828400000000     0.331700000000     0          
C117     C      0.734100000000     0.864400000000     0.369000000000     0          
H118     H      0.744700000000     0.885100000000     0.410700000000     0          
C119     C      0.677900000000     0.867700000000     0.342000000000     0          
C120     C      0.659400000000     0.836800000000     0.278400000000     0          
H121     H      0.621300000000     0.838600000000     0.259500000000     0          
C122     C      0.706600000000     0.802500000000     0.246700000000     0          
C123     C      0.634300000000     0.904000000000     0.379400000000     0          
F124     F      0.718800000000     0.767000000000     0.129800000000     0          
F125     F      0.635800000000     0.804600000000     0.156000000000     0          
F126     F      0.660000000000     0.720800000000     0.199000000000     0          
H127     H      0.814600000000     0.825900000000     0.349500000000     0          
C128     C      0.680300000000     0.774000000000     0.182900000000     0          
O129     O      0.943400000000     0.659500000000     0.928700000000     0          
O130     O      0.887700000000     0.578500000000     0.859500000000     0          
C131     C      0.798000000000     0.761500000000     0.771000000000     0          
C132     C      0.828400000000     0.776300000000     0.831700000000     0          
C133     C      0.864400000000     0.734100000000     0.869000000000     0          
H134     H      0.885100000000     0.744700000000     0.910700000000     0          
C135     C      0.867700000000     0.677900000000     0.842000000000     0          
C136     C      0.836800000000     0.659400000000     0.778400000000     0          
H137     H      0.838600000000     0.621300000000     0.759500000000     0          
C138     C      0.802500000000     0.706600000000     0.746700000000     0          
C139     C      0.904000000000     0.634300000000     0.879400000000     0          
F140     F      0.767000000000     0.718800000000     0.629800000000     0          
F141     F      0.804600000000     0.635800000000     0.656000000000     0          
F142     F      0.720800000000     0.660000000000     0.699000000000     0          
H143     H      0.825900000000     0.814600000000     0.849500000000     0          
C144     C      0.774000000000     0.680300000000     0.682900000000     0          
F145     F      0.165000000000     0.122700000000     0.813700000000     0          
F146     F      0.226200000000     0.153000000000     0.892100000000     0          
F147     F      0.134800000000     0.156300000000     0.914800000000     0          
O148     O      0.056600000000     0.340500000000     0.928700000000     0          
O149     O      0.112300000000     0.421500000000     0.859500000000     0          
C150     C      0.202000000000     0.238500000000     0.771000000000     0          
C151     C      0.171600000000     0.223700000000     0.831700000000     0          
C152     C      0.135600000000     0.265900000000     0.869000000000     0          
H153     H      0.114900000000     0.255300000000     0.910700000000     0          
C154     C      0.132300000000     0.322100000000     0.842000000000     0          
C155     C      0.163200000000     0.340600000000     0.778400000000     0          
H156     H      0.161400000000     0.378700000000     0.759500000000     0          
C157     C      0.197500000000     0.293400000000     0.746700000000     0          
H158     H      0.218700000000     0.302500000000     0.704900000000     0          
C159     C      0.096000000000     0.365700000000     0.879400000000     0          
C160     C      0.173800000000     0.164900000000     0.862300000000     0          
O161     O      0.340500000000     0.943400000000     0.428700000000     0          
O162     O      0.421500000000     0.887700000000     0.359500000000     0          
C163     C      0.238500000000     0.798000000000     0.271000000000     0          
C164     C      0.223700000000     0.828400000000     0.331700000000     0          
C165     C      0.265900000000     0.864400000000     0.369000000000     0          
H166     H      0.255300000000     0.885100000000     0.410700000000     0          
C167     C      0.322100000000     0.867700000000     0.342000000000     0          
C168     C      0.340600000000     0.836800000000     0.278400000000     0          
H169     H      0.378700000000     0.838600000000     0.259500000000     0          
C170     C      0.293400000000     0.802500000000     0.246700000000     0          
C171     C      0.365700000000     0.904000000000     0.379400000000     0          
F172     F      0.281200000000     0.767000000000     0.129800000000     0          
F173     F      0.364200000000     0.804600000000     0.156000000000     0          
F174     F      0.340000000000     0.720800000000     0.199000000000     0          
H175     H      0.185400000000     0.825900000000     0.349500000000     0          
C176     C      0.319700000000     0.774000000000     0.182900000000     0          
F177     F      0.877300000000     0.165000000000     0.313700000000     0          
F178     F      0.847000000000     0.226200000000     0.392100000000     0          
F179     F      0.843700000000     0.134800000000     0.414800000000     0          
O180     O      0.659500000000     0.056600000000     0.428700000000     0          
O181     O      0.578500000000     0.112300000000     0.359500000000     0          
C182     C      0.761500000000     0.202000000000     0.271000000000     0          
C183     C      0.776300000000     0.171600000000     0.331700000000     0          
C184     C      0.734100000000     0.135600000000     0.369000000000     0          
H185     H      0.744700000000     0.114900000000     0.410700000000     0          
C186     C      0.677900000000     0.132300000000     0.342000000000     0          
C187     C      0.659400000000     0.163200000000     0.278400000000     0          
H188     H      0.621300000000     0.161400000000     0.259500000000     0          
C189     C      0.706600000000     0.197500000000     0.246700000000     0          
H190     H      0.697500000000     0.218700000000     0.204900000000     0          
C191     C      0.634300000000     0.096000000000     0.379400000000     0          
C192     C      0.835100000000     0.173800000000     0.362300000000     0          
F193     F      0.165000000000     0.877300000000     0.186300000000     0          
F194     F      0.226200000000     0.847000000000     0.107900000000     0          
F195     F      0.134800000000     0.843700000000     0.085200000000     0          
O196     O      0.056600000000     0.659500000000     0.071300000000     0          
O197     O      0.112300000000     0.578500000000     0.140500000000     0          
C198     C      0.202000000000     0.761500000000     0.229000000000     0          
C199     C      0.171600000000     0.776300000000     0.168300000000     0          
C200     C      0.135600000000     0.734100000000     0.131000000000     0          
H201     H      0.114900000000     0.744700000000     0.089300000000     0          
C202     C      0.132300000000     0.677900000000     0.158000000000     0          
C203     C      0.163200000000     0.659400000000     0.221600000000     0          
H204     H      0.161400000000     0.621300000000     0.240500000000     0          
C205     C      0.197500000000     0.706600000000     0.253300000000     0          
H206     H      0.218700000000     0.697500000000     0.295100000000     0          
C207     C      0.096000000000     0.634300000000     0.120600000000     0          
C208     C      0.173800000000     0.835100000000     0.137700000000     0          
O209     O      0.943400000000     0.340500000000     0.071300000000     0          
O210     O      0.887700000000     0.421500000000     0.140500000000     0          
C211     C      0.798000000000     0.238500000000     0.229000000000     0          
C212     C      0.828400000000     0.223700000000     0.168300000000     0          
C213     C      0.864400000000     0.265900000000     0.131000000000     0          
H214     H      0.885100000000     0.255300000000     0.089300000000     0          
C215     C      0.867700000000     0.322100000000     0.158000000000     0          
C216     C      0.836800000000     0.340600000000     0.221600000000     0          
H217     H      0.838600000000     0.378700000000     0.240500000000     0          
C218     C      0.802500000000     0.293400000000     0.253300000000     0          
C219     C      0.904000000000     0.365700000000     0.120600000000     0          
F220     F      0.767000000000     0.281200000000     0.370200000000     0          
F221     F      0.804600000000     0.364200000000     0.344000000000     0          
F222     F      0.720800000000     0.340000000000     0.301000000000     0          
H223     H      0.825900000000     0.185400000000     0.150500000000     0          
C224     C      0.774000000000     0.319700000000     0.317100000000     0          
F225     F      0.877300000000     0.835000000000     0.686300000000     0          
F226     F      0.847000000000     0.773800000000     0.607900000000     0          
F227     F      0.843700000000     0.865200000000     0.585200000000     0          
O228     O      0.659500000000     0.943400000000     0.571300000000     0          
O229     O      0.578500000000     0.887700000000     0.640500000000     0          
C230     C      0.761500000000     0.798000000000     0.729000000000     0          
C231     C      0.776300000000     0.828400000000     0.668300000000     0          
C232     C      0.734100000000     0.864400000000     0.631000000000     0          
H233     H      0.744700000000     0.885100000000     0.589300000000     0          
C234     C      0.677900000000     0.867700000000     0.658000000000     0          
C235     C      0.659400000000     0.836800000000     0.721600000000     0          
H236     H      0.621300000000     0.838600000000     0.740500000000     0          
C237     C      0.706600000000     0.802500000000     0.753300000000     0          
H238     H      0.697500000000     0.781300000000     0.795100000000     0          
C239     C      0.634300000000     0.904000000000     0.620600000000     0          
C240     C      0.835100000000     0.826200000000     0.637700000000     0          
O241     O      0.340500000000     0.056600000000     0.571300000000     0          
O242     O      0.421500000000     0.112300000000     0.640500000000     0          
C243     C      0.238500000000     0.202000000000     0.729000000000     0          
C244     C      0.223700000000     0.171600000000     0.668300000000     0          
C245     C      0.265900000000     0.135600000000     0.631000000000     0          
H246     H      0.255300000000     0.114900000000     0.589300000000     0          
C247     C      0.322100000000     0.132300000000     0.658000000000     0          
C248     C      0.340600000000     0.163200000000     0.721600000000     0          
H249     H      0.378700000000     0.161400000000     0.740500000000     0          
C250     C      0.293400000000     0.197500000000     0.753300000000     0          
C251     C      0.365700000000     0.096000000000     0.620600000000     0          
F252     F      0.281200000000     0.233000000000     0.870200000000     0          
F253     F      0.364200000000     0.195400000000     0.844000000000     0          
F254     F      0.340000000000     0.279200000000     0.801000000000     0          
H255     H      0.185400000000     0.174100000000     0.650500000000     0          
C256     C      0.319700000000     0.226000000000     0.817100000000     0          
Zr257    Zr     0.075310000000     0.500000000000     0.092660000000     0          
F258     F      0.442900000000     0.500000000000     0.125000000000     0          
O259     O      0.052700000000     0.500000000000     0.204600000000     0          
O260     O      0.168600000000     0.500000000000     0.058600000000     0          
C261     C      0.052000000000     0.500000000000     0.349100000000     0          
H262     H      0.087500000000     0.500000000000     0.323700000000     0          
C263     C      0.052100000000     0.500000000000     0.423600000000     0          
C264     C      0.284800000000     0.500000000000     0.064100000000     0          
H265     H      0.264200000000     0.500000000000     0.107900000000     0          
C266     C      0.345000000000     0.500000000000     0.064200000000     0          
H267     H      0.365600000000     0.500000000000     0.107900000000     0          
C268     C      0.469900000000     0.500000000000     0.064100000000     0          
H269     H      0.087700000000     0.500000000000     0.448700000000     0          
Zr270    Zr     0.924690000000     0.500000000000     0.092660000000     0          
F271     F      0.846500000000     0.500000000000     0.411700000000     0          
O272     O      0.947300000000     0.500000000000     0.204600000000     0          
O273     O      0.831400000000     0.500000000000     0.058600000000     0          
C274     C      0.948000000000     0.500000000000     0.349100000000     0          
H275     H      0.912500000000     0.500000000000     0.323700000000     0          
C276     C      0.947900000000     0.500000000000     0.423600000000     0          
C277     C      0.890600000000     0.500000000000     0.460300000000     0          
C278     C      0.715200000000     0.500000000000     0.064100000000     0          
H279     H      0.735800000000     0.500000000000     0.107900000000     0          
C280     C      0.655000000000     0.500000000000     0.064200000000     0          
H281     H      0.634400000000     0.500000000000     0.107900000000     0          
C282     C      0.530100000000     0.500000000000     0.064100000000     0          
H283     H      0.550700000000     0.500000000000     0.107900000000     0          
Zr284    Zr     0.500000000000     0.075310000000     0.592660000000     0          
F285     F      0.500000000000     0.442900000000     0.625000000000     0          
O286     O      0.500000000000     0.052700000000     0.704600000000     0          
O287     O      0.500000000000     0.168600000000     0.558600000000     0          
C288     C      0.500000000000     0.052000000000     0.849100000000     0          
H289     H      0.500000000000     0.087500000000     0.823700000000     0          
C290     C      0.500000000000     0.052100000000     0.923600000000     0          
C291     C      0.500000000000     0.284800000000     0.564100000000     0          
H292     H      0.500000000000     0.264200000000     0.607900000000     0          
C293     C      0.500000000000     0.345000000000     0.564200000000     0          
H294     H      0.500000000000     0.365600000000     0.607900000000     0          
C295     C      0.500000000000     0.469900000000     0.564100000000     0          
H296     H      0.500000000000     0.087700000000     0.948700000000     0          
Zr298    Zr     0.500000000000     0.924690000000     0.592660000000     0          
F299     F      0.500000000000     0.846500000000     0.911700000000     0          
O300     O      0.500000000000     0.947300000000     0.704600000000     0          
O301     O      0.500000000000     0.831400000000     0.558600000000     0          
C302     C      0.500000000000     0.948000000000     0.849100000000     0          
H303     H      0.500000000000     0.912500000000     0.823700000000     0          
C304     C      0.500000000000     0.947900000000     0.923600000000     0          
C305     C      0.500000000000     0.890600000000     0.960300000000     0          
C306     C      0.500000000000     0.715200000000     0.564100000000     0          
H307     H      0.500000000000     0.735800000000     0.607900000000     0          
C308     C      0.500000000000     0.655000000000     0.564200000000     0          
H309     H      0.500000000000     0.634400000000     0.607900000000     0          
C310     C      0.500000000000     0.530100000000     0.564100000000     0          
H311     H      0.500000000000     0.550700000000     0.607900000000     0          
Zr312    Zr     0.924690000000     0.500000000000     0.907340000000     0          
F313     F      0.557100000000     0.500000000000     0.875000000000     0          
O314     O      0.947300000000     0.500000000000     0.795400000000     0          
O315     O      0.831400000000     0.500000000000     0.941400000000     0          
C316     C      0.948000000000     0.500000000000     0.650900000000     0          
H317     H      0.912500000000     0.500000000000     0.676300000000     0          
C318     C      0.947900000000     0.500000000000     0.576400000000     0          
C319     C      0.715200000000     0.500000000000     0.935900000000     0          
H320     H      0.735800000000     0.500000000000     0.892100000000     0          
C321     C      0.655000000000     0.500000000000     0.935800000000     0          
H322     H      0.634400000000     0.500000000000     0.892100000000     0          
C323     C      0.530100000000     0.500000000000     0.935900000000     0          
H324     H      0.912300000000     0.500000000000     0.551300000000     0          
Zr325    Zr     0.075310000000     0.500000000000     0.907340000000     0          
F326     F      0.153500000000     0.500000000000     0.588300000000     0          
O327     O      0.052700000000     0.500000000000     0.795400000000     0          
O328     O      0.168600000000     0.500000000000     0.941400000000     0          
C329     C      0.052000000000     0.500000000000     0.650900000000     0          
H330     H      0.087500000000     0.500000000000     0.676300000000     0          
C331     C      0.052100000000     0.500000000000     0.576400000000     0          
C332     C      0.109400000000     0.500000000000     0.539700000000     0          
C333     C      0.284800000000     0.500000000000     0.935900000000     0          
H334     H      0.264200000000     0.500000000000     0.892100000000     0          
C335     C      0.345000000000     0.500000000000     0.935800000000     0          
H336     H      0.365600000000     0.500000000000     0.892100000000     0          
C337     C      0.469900000000     0.500000000000     0.935900000000     0          
H338     H      0.449300000000     0.500000000000     0.892100000000     0          
Zr339    Zr     0.500000000000     0.075310000000     0.407340000000     0          
F340     F      0.500000000000     0.153500000000     0.088300000000     0          
O341     O      0.500000000000     0.052700000000     0.295400000000     0          
O342     O      0.500000000000     0.168600000000     0.441400000000     0          
C343     C      0.500000000000     0.052000000000     0.150900000000     0          
H344     H      0.500000000000     0.087500000000     0.176300000000     0          
C345     C      0.500000000000     0.052100000000     0.076400000000     0          
C346     C      0.500000000000     0.109400000000     0.039700000000     0          
C347     C      0.500000000000     0.284800000000     0.435900000000     0          
H348     H      0.500000000000     0.264200000000     0.392100000000     0          
C349     C      0.500000000000     0.345000000000     0.435800000000     0          
H350     H      0.500000000000     0.365600000000     0.392100000000     0          
C351     C      0.500000000000     0.469900000000     0.435900000000     0          
H352     H      0.500000000000     0.449300000000     0.392100000000     0          
Zr353    Zr     0.500000000000     0.924690000000     0.407340000000     0          
F354     F      0.500000000000     0.557100000000     0.375000000000     0          
O355     O      0.500000000000     0.947300000000     0.295400000000     0          
O356     O      0.500000000000     0.831400000000     0.441400000000     0          
C357     C      0.500000000000     0.948000000000     0.150900000000     0          
H358     H      0.500000000000     0.912500000000     0.176300000000     0          
C359     C      0.500000000000     0.947900000000     0.076400000000     0          
C360     C      0.500000000000     0.715200000000     0.435900000000     0          
H361     H      0.500000000000     0.735800000000     0.392100000000     0          
C362     C      0.500000000000     0.655000000000     0.435800000000     0          
H363     H      0.500000000000     0.634400000000     0.392100000000     0          
C364     C      0.500000000000     0.530100000000     0.435900000000     0          
H365     H      0.500000000000     0.912300000000     0.051300000000     0          
Zr366    Zr     0.000000000000     0.391360000000     0.000000000000     0          
Zr367    Zr     0.000000000000     0.608640000000     0.000000000000     0          
Zr368    Zr     0.608640000000     0.000000000000     0.500000000000     0          
Zr369    Zr     0.391360000000     0.000000000000     0.500000000000     0          
F370     F      0.118300000000     0.547500000000     0.500000000000     0          
F371     F      0.881700000000     0.452500000000     0.500000000000     0          
F372     F      0.452500000000     0.118300000000     0.000000000000     0          
F373     F      0.547500000000     0.881700000000     0.000000000000     0          
F374     F      0.881700000000     0.547500000000     0.500000000000     0          
F375     F      0.118300000000     0.452500000000     0.500000000000     0          
F376     F      0.547500000000     0.118300000000     0.000000000000     0          
F377     F      0.452500000000     0.881700000000     0.000000000000     0          
O378     O      0.075000000000     0.445200000000     0.000000000000     0          
O379     O      0.925000000000     0.554800000000     0.000000000000     0          
O380     O      0.554800000000     0.075000000000     0.500000000000     0          
O381     O      0.445200000000     0.925000000000     0.500000000000     0          
O382     O      0.925000000000     0.445200000000     0.000000000000     0          
O383     O      0.075000000000     0.554800000000     0.000000000000     0          
O384     O      0.445200000000     0.075000000000     0.500000000000     0          
O385     O      0.554800000000     0.925000000000     0.500000000000     0          
O386     O      0.000000000000     0.444900000000     0.092500000000     0          
O387     O      0.000000000000     0.555100000000     0.092500000000     0          
O388     O      0.555100000000     0.000000000000     0.592500000000     0          
O389     O      0.444900000000     0.000000000000     0.592500000000     0          
O390     O      0.000000000000     0.444900000000     0.907500000000     0          
O391     O      0.000000000000     0.555100000000     0.907500000000     0          
O392     O      0.444900000000     0.000000000000     0.407500000000     0          
O393     O      0.555100000000     0.000000000000     0.407500000000     0          
C394     C      0.000000000000     0.500000000000     0.234200000000     0          
C395     C      0.000000000000     0.500000000000     0.312700000000     0          
C396     C      0.000000000000     0.500000000000     0.460300000000     0          
C397     C      0.500000000000     0.000000000000     0.734200000000     0          
C398     C      0.500000000000     0.000000000000     0.812700000000     0          
C399     C      0.500000000000     0.000000000000     0.960300000000     0          
C400     C      0.000000000000     0.500000000000     0.765800000000     0          
C401     C      0.000000000000     0.500000000000     0.687300000000     0          
C402     C      0.000000000000     0.500000000000     0.539700000000     0          
C403     C      0.500000000000     0.000000000000     0.265800000000     0          
C404     C      0.500000000000     0.000000000000     0.187300000000     0          
C405     C      0.500000000000     0.000000000000     0.039700000000     0          
C406     C      0.190300000000     0.500000000000     0.000000000000     0          
C407     C      0.254900000000     0.500000000000     0.000000000000     0          
C408     C      0.375100000000     0.500000000000     0.000000000000     0          
C409     C      0.439840000000     0.500000000000     0.000000000000     0          
C410     C      0.809700000000     0.500000000000     0.000000000000     0          
C411     C      0.745100000000     0.500000000000     0.000000000000     0          
C412     C      0.624900000000     0.500000000000     0.000000000000     0          
C413     C      0.560160000000     0.500000000000     0.000000000000     0          
C414     C      0.500000000000     0.190300000000     0.500000000000     0          
C415     C      0.500000000000     0.254900000000     0.500000000000     0          
C416     C      0.500000000000     0.375100000000     0.500000000000     0          
C417     C      0.500000000000     0.439840000000     0.500000000000     0          
C418     C      0.500000000000     0.809700000000     0.500000000000     0          
C419     C      0.500000000000     0.745100000000     0.500000000000     0          
C420     C      0.500000000000     0.624900000000     0.500000000000     0          
C421     C      0.500000000000     0.560160000000     0.500000000000     0          


