data_NEJMUN

_audit_creation_method RASPA-1.0
_audit_creation_date 2020-11-2
_audit_author_name 'Rocio Bueno-Perez'

_cell_length_a    23.0722
_cell_length_b    23.0722
_cell_length_c    18.8821
_cell_angle_alpha 90
_cell_angle_beta  90
_cell_angle_gamma 90
_cell_volume      10051.4

_symmetry_cell_setting          triclinic
_symmetry_space_group_name_Hall 'P 1'
_symmetry_space_group_name_H-M  'P 1'
_symmetry_Int_Tables_number     1

_symmetry_equiv_pos_as_xyz 'x,y,z'

loop_
_atom_site_label
_atom_site_type_symbol
_atom_site_fract_x
_atom_site_fract_y
_atom_site_fract_z
_atom_site_charge
F1       F      0.351600000000     0.278600000000     0.108900000000     0          
F2       F      0.351200000000     0.369900000000     0.086400000000     0          
F3       F      0.383700000000     0.339900000000     0.186600000000     0          
O4       O      0.085340000000     0.391720000000     0.131200000000     0          
O5       O      0.156450000000     0.441290000000     0.071770000000     0          
C6       C      0.261700000000     0.302900000000     0.231000000000     0          
C7       C      0.204600000000     0.305400000000     0.253100000000     0          
H8       H      0.192600000000     0.286600000000     0.295400000000     0          
C9       C      0.165500000000     0.335800000000     0.212000000000     0          
H10      H      0.125400000000     0.333100000000     0.223100000000     0          
C11      C      0.181900000000     0.369300000000     0.156800000000     0          
C12      C      0.239000000000     0.369500000000     0.136500000000     0          
H13      H      0.251300000000     0.393000000000     0.098000000000     0          
C14      C      0.278600000000     0.335300000000     0.172500000000     0          
C15      C      0.137500000000     0.404000000000     0.116300000000     0          
C16      C      0.337900000000     0.332800000000     0.139500000000     0          
O17      O      0.914660000000     0.608280000000     0.131200000000     0          
O18      O      0.843550000000     0.558710000000     0.071770000000     0          
C19      C      0.738300000000     0.697100000000     0.231000000000     0          
C20      C      0.795400000000     0.694600000000     0.253100000000     0          
C21      C      0.834500000000     0.664200000000     0.212000000000     0          
H22      H      0.874600000000     0.666900000000     0.223100000000     0          
C23      C      0.818100000000     0.630700000000     0.156800000000     0          
C24      C      0.761000000000     0.630500000000     0.136500000000     0          
H25      H      0.748700000000     0.607000000000     0.098000000000     0          
C26      C      0.721400000000     0.664700000000     0.172500000000     0          
C27      C      0.862500000000     0.596000000000     0.116300000000     0          
F28      F      0.822100000000     0.777000000000     0.330700000000     0          
F29      F      0.786200000000     0.704000000000     0.384700000000     0          
F30      F      0.873000000000     0.700500000000     0.344800000000     0          
H31      H      0.682300000000     0.666100000000     0.157000000000     0          
C32      C      0.817700000000     0.716700000000     0.323300000000     0          
F33      F      0.721400000000     0.351600000000     0.608900000000     0          
F34      F      0.630100000000     0.351200000000     0.586400000000     0          
F35      F      0.660100000000     0.383700000000     0.686600000000     0          
O36      O      0.608280000000     0.085340000000     0.631200000000     0          
O37      O      0.558710000000     0.156450000000     0.571770000000     0          
C38      C      0.697100000000     0.261700000000     0.731000000000     0          
C39      C      0.694600000000     0.204600000000     0.753100000000     0          
H40      H      0.713400000000     0.192600000000     0.795400000000     0          
C41      C      0.664200000000     0.165500000000     0.712000000000     0          
H42      H      0.666900000000     0.125400000000     0.723100000000     0          
C43      C      0.630700000000     0.181900000000     0.656800000000     0          
C44      C      0.630500000000     0.239000000000     0.636500000000     0          
H45      H      0.607000000000     0.251300000000     0.598000000000     0          
C46      C      0.664700000000     0.278600000000     0.672500000000     0          
C47      C      0.596000000000     0.137500000000     0.616300000000     0          
C48      C      0.667200000000     0.337900000000     0.639500000000     0          
F49      F      0.278600000000     0.648400000000     0.608900000000     0          
F50      F      0.369900000000     0.648800000000     0.586400000000     0          
F51      F      0.339900000000     0.616300000000     0.686600000000     0          
O52      O      0.391720000000     0.914660000000     0.631200000000     0          
O53      O      0.441290000000     0.843550000000     0.571770000000     0          
C54      C      0.302900000000     0.738300000000     0.731000000000     0          
C55      C      0.305400000000     0.795400000000     0.753100000000     0          
H56      H      0.286600000000     0.807400000000     0.795400000000     0          
C57      C      0.335800000000     0.834500000000     0.712000000000     0          
H58      H      0.333100000000     0.874600000000     0.723100000000     0          
C59      C      0.369300000000     0.818100000000     0.656800000000     0          
C60      C      0.369500000000     0.761000000000     0.636500000000     0          
H61      H      0.393000000000     0.748700000000     0.598000000000     0          
C62      C      0.335300000000     0.721400000000     0.672500000000     0          
C63      C      0.404000000000     0.862500000000     0.616300000000     0          
C64      C      0.332800000000     0.662100000000     0.639500000000     0          
O65      O      0.914660000000     0.391720000000     0.868800000000     0          
O66      O      0.843550000000     0.441290000000     0.928230000000     0          
C67      C      0.738300000000     0.302900000000     0.769000000000     0          
C68      C      0.795400000000     0.305400000000     0.746900000000     0          
C69      C      0.834500000000     0.335800000000     0.788000000000     0          
H70      H      0.874600000000     0.333100000000     0.776900000000     0          
C71      C      0.818100000000     0.369300000000     0.843200000000     0          
C72      C      0.761000000000     0.369500000000     0.863500000000     0          
H73      H      0.748700000000     0.393000000000     0.902000000000     0          
C74      C      0.721400000000     0.335300000000     0.827500000000     0          
C75      C      0.862500000000     0.404000000000     0.883700000000     0          
F76      F      0.822100000000     0.223000000000     0.669300000000     0          
F77      F      0.786200000000     0.296000000000     0.615300000000     0          
F78      F      0.873000000000     0.299500000000     0.655200000000     0          
H79      H      0.682300000000     0.333900000000     0.843000000000     0          
C80      C      0.817700000000     0.283300000000     0.676700000000     0          
H81      H      0.868600000000     0.050800000000     0.957600000000     0          
O82      O      0.085340000000     0.608280000000     0.868800000000     0          
O83      O      0.156450000000     0.558710000000     0.928230000000     0          
C84      C      0.261700000000     0.697100000000     0.769000000000     0          
C85      C      0.204600000000     0.694600000000     0.746900000000     0          
C86      C      0.165500000000     0.664200000000     0.788000000000     0          
H87      H      0.125400000000     0.666900000000     0.776900000000     0          
C88      C      0.181900000000     0.630700000000     0.843200000000     0          
C89      C      0.239000000000     0.630500000000     0.863500000000     0          
H90      H      0.251300000000     0.607000000000     0.902000000000     0          
C91      C      0.278600000000     0.664700000000     0.827500000000     0          
C92      C      0.137500000000     0.596000000000     0.883700000000     0          
F93      F      0.177900000000     0.777000000000     0.669300000000     0          
F94      F      0.213800000000     0.704000000000     0.615300000000     0          
F95      F      0.127000000000     0.700500000000     0.655200000000     0          
H96      H      0.317700000000     0.666100000000     0.843000000000     0          
C97      C      0.182300000000     0.716700000000     0.676700000000     0          
O98      O      0.391720000000     0.085340000000     0.368800000000     0          
O99      O      0.441290000000     0.156450000000     0.428230000000     0          
C100     C      0.302900000000     0.261700000000     0.269000000000     0          
C101     C      0.305400000000     0.204600000000     0.246900000000     0          
C102     C      0.335800000000     0.165500000000     0.288000000000     0          
H103     H      0.333100000000     0.125400000000     0.276900000000     0          
C104     C      0.369300000000     0.181900000000     0.343200000000     0          
C105     C      0.369500000000     0.239000000000     0.363500000000     0          
H106     H      0.393000000000     0.251300000000     0.402000000000     0          
C107     C      0.335300000000     0.278600000000     0.327500000000     0          
C108     C      0.404000000000     0.137500000000     0.383700000000     0          
F109     F      0.223000000000     0.177900000000     0.169300000000     0          
F110     F      0.296000000000     0.213800000000     0.115300000000     0          
F111     F      0.299500000000     0.127000000000     0.155200000000     0          
H112     H      0.333900000000     0.317700000000     0.343000000000     0          
C113     C      0.283300000000     0.182300000000     0.176700000000     0          
F114     F      0.721400000000     0.648400000000     0.391100000000     0          
F115     F      0.630100000000     0.648800000000     0.413600000000     0          
F116     F      0.660100000000     0.616300000000     0.313400000000     0          
O117     O      0.608280000000     0.914660000000     0.368800000000     0          
O118     O      0.558710000000     0.843550000000     0.428230000000     0          
C119     C      0.697100000000     0.738300000000     0.269000000000     0          
C120     C      0.694600000000     0.795400000000     0.246900000000     0          
H121     H      0.713400000000     0.807400000000     0.204600000000     0          
C122     C      0.664200000000     0.834500000000     0.288000000000     0          
H123     H      0.666900000000     0.874600000000     0.276900000000     0          
C124     C      0.630700000000     0.818100000000     0.343200000000     0          
C125     C      0.630500000000     0.761000000000     0.363500000000     0          
H126     H      0.607000000000     0.748700000000     0.402000000000     0          
C127     C      0.664700000000     0.721400000000     0.327500000000     0          
C128     C      0.596000000000     0.862500000000     0.383700000000     0          
C129     C      0.667200000000     0.662100000000     0.360500000000     0          
H130     H      0.949200000000     0.868600000000     0.457600000000     0          
O131     O      0.914660000000     0.608280000000     0.868800000000     0          
O132     O      0.843550000000     0.558710000000     0.928230000000     0          
C133     C      0.738300000000     0.697100000000     0.769000000000     0          
C134     C      0.795400000000     0.694600000000     0.746900000000     0          
C135     C      0.834500000000     0.664200000000     0.788000000000     0          
H136     H      0.874600000000     0.666900000000     0.776900000000     0          
C137     C      0.818100000000     0.630700000000     0.843200000000     0          
C138     C      0.761000000000     0.630500000000     0.863500000000     0          
H139     H      0.748700000000     0.607000000000     0.902000000000     0          
C140     C      0.721400000000     0.664700000000     0.827500000000     0          
C141     C      0.862500000000     0.596000000000     0.883700000000     0          
F142     F      0.822100000000     0.777000000000     0.669300000000     0          
F143     F      0.786200000000     0.704000000000     0.615300000000     0          
F144     F      0.873000000000     0.700500000000     0.655200000000     0          
H145     H      0.682300000000     0.666100000000     0.843000000000     0          
C146     C      0.817700000000     0.716700000000     0.676700000000     0          
F147     F      0.351600000000     0.278600000000     0.891100000000     0          
F148     F      0.351200000000     0.369900000000     0.913600000000     0          
F149     F      0.383700000000     0.339900000000     0.813400000000     0          
O150     O      0.085340000000     0.391720000000     0.868800000000     0          
O151     O      0.156450000000     0.441290000000     0.928230000000     0          
C152     C      0.261700000000     0.302900000000     0.769000000000     0          
C153     C      0.204600000000     0.305400000000     0.746900000000     0          
H154     H      0.192600000000     0.286600000000     0.704600000000     0          
C155     C      0.165500000000     0.335800000000     0.788000000000     0          
H156     H      0.125400000000     0.333100000000     0.776900000000     0          
C157     C      0.181900000000     0.369300000000     0.843200000000     0          
C158     C      0.239000000000     0.369500000000     0.863500000000     0          
H159     H      0.251300000000     0.393000000000     0.902000000000     0          
C160     C      0.278600000000     0.335300000000     0.827500000000     0          
C161     C      0.137500000000     0.404000000000     0.883700000000     0          
C162     C      0.337900000000     0.332800000000     0.860500000000     0          
O163     O      0.391720000000     0.914660000000     0.368800000000     0          
O164     O      0.441290000000     0.843550000000     0.428230000000     0          
C165     C      0.302900000000     0.738300000000     0.269000000000     0          
C166     C      0.305400000000     0.795400000000     0.246900000000     0          
C167     C      0.335800000000     0.834500000000     0.288000000000     0          
H168     H      0.333100000000     0.874600000000     0.276900000000     0          
C169     C      0.369300000000     0.818100000000     0.343200000000     0          
C170     C      0.369500000000     0.761000000000     0.363500000000     0          
H171     H      0.393000000000     0.748700000000     0.402000000000     0          
C172     C      0.335300000000     0.721400000000     0.327500000000     0          
C173     C      0.404000000000     0.862500000000     0.383700000000     0          
F174     F      0.223000000000     0.822100000000     0.169300000000     0          
F175     F      0.296000000000     0.786200000000     0.115300000000     0          
F176     F      0.299500000000     0.873000000000     0.155200000000     0          
H177     H      0.333900000000     0.682300000000     0.343000000000     0          
C178     C      0.283300000000     0.817700000000     0.176700000000     0          
F179     F      0.721400000000     0.351600000000     0.391100000000     0          
F180     F      0.630100000000     0.351200000000     0.413600000000     0          
F181     F      0.660100000000     0.383700000000     0.313400000000     0          
O182     O      0.608280000000     0.085340000000     0.368800000000     0          
O183     O      0.558710000000     0.156450000000     0.428230000000     0          
C184     C      0.697100000000     0.261700000000     0.269000000000     0          
C185     C      0.694600000000     0.204600000000     0.246900000000     0          
H186     H      0.713400000000     0.192600000000     0.204600000000     0          
C187     C      0.664200000000     0.165500000000     0.288000000000     0          
H188     H      0.666900000000     0.125400000000     0.276900000000     0          
C189     C      0.630700000000     0.181900000000     0.343200000000     0          
C190     C      0.630500000000     0.239000000000     0.363500000000     0          
H191     H      0.607000000000     0.251300000000     0.402000000000     0          
C192     C      0.664700000000     0.278600000000     0.327500000000     0          
C193     C      0.596000000000     0.137500000000     0.383700000000     0          
C194     C      0.667200000000     0.337900000000     0.360500000000     0          
F195     F      0.351600000000     0.721400000000     0.108900000000     0          
F196     F      0.351200000000     0.630100000000     0.086400000000     0          
F197     F      0.383700000000     0.660100000000     0.186600000000     0          
O198     O      0.085340000000     0.608280000000     0.131200000000     0          
O199     O      0.156450000000     0.558710000000     0.071770000000     0          
C200     C      0.261700000000     0.697100000000     0.231000000000     0          
C201     C      0.204600000000     0.694600000000     0.253100000000     0          
H202     H      0.192600000000     0.713400000000     0.295400000000     0          
C203     C      0.165500000000     0.664200000000     0.212000000000     0          
H204     H      0.125400000000     0.666900000000     0.223100000000     0          
C205     C      0.181900000000     0.630700000000     0.156800000000     0          
C206     C      0.239000000000     0.630500000000     0.136500000000     0          
H207     H      0.251300000000     0.607000000000     0.098000000000     0          
C208     C      0.278600000000     0.664700000000     0.172500000000     0          
C209     C      0.137500000000     0.596000000000     0.116300000000     0          
C210     C      0.337900000000     0.667200000000     0.139500000000     0          
O211     O      0.914660000000     0.391720000000     0.131200000000     0          
O212     O      0.843550000000     0.441290000000     0.071770000000     0          
C213     C      0.738300000000     0.302900000000     0.231000000000     0          
C214     C      0.795400000000     0.305400000000     0.253100000000     0          
C215     C      0.834500000000     0.335800000000     0.212000000000     0          
H216     H      0.874600000000     0.333100000000     0.223100000000     0          
C217     C      0.818100000000     0.369300000000     0.156800000000     0          
C218     C      0.761000000000     0.369500000000     0.136500000000     0          
H219     H      0.748700000000     0.393000000000     0.098000000000     0          
C220     C      0.721400000000     0.335300000000     0.172500000000     0          
C221     C      0.862500000000     0.404000000000     0.116300000000     0          
F222     F      0.822100000000     0.223000000000     0.330700000000     0          
F223     F      0.786200000000     0.296000000000     0.384700000000     0          
F224     F      0.873000000000     0.299500000000     0.344800000000     0          
H225     H      0.682300000000     0.333900000000     0.157000000000     0          
C226     C      0.817700000000     0.283300000000     0.323300000000     0          
H227     H      0.868600000000     0.050800000000     0.042400000000     0          
F228     F      0.721400000000     0.648400000000     0.608900000000     0          
F229     F      0.630100000000     0.648800000000     0.586400000000     0          
F230     F      0.660100000000     0.616300000000     0.686600000000     0          
O231     O      0.608280000000     0.914660000000     0.631200000000     0          
O232     O      0.558710000000     0.843550000000     0.571770000000     0          
C233     C      0.697100000000     0.738300000000     0.731000000000     0          
C234     C      0.694600000000     0.795400000000     0.753100000000     0          
H235     H      0.713400000000     0.807400000000     0.795400000000     0          
C236     C      0.664200000000     0.834500000000     0.712000000000     0          
H237     H      0.666900000000     0.874600000000     0.723100000000     0          
C238     C      0.630700000000     0.818100000000     0.656800000000     0          
C239     C      0.630500000000     0.761000000000     0.636500000000     0          
H240     H      0.607000000000     0.748700000000     0.598000000000     0          
C241     C      0.664700000000     0.721400000000     0.672500000000     0          
C242     C      0.596000000000     0.862500000000     0.616300000000     0          
C243     C      0.667200000000     0.662100000000     0.639500000000     0          
H244     H      0.949200000000     0.868600000000     0.542400000000     0          
O245     O      0.391720000000     0.085340000000     0.631200000000     0          
O246     O      0.441290000000     0.156450000000     0.571770000000     0          
C247     C      0.302900000000     0.261700000000     0.731000000000     0          
C248     C      0.305400000000     0.204600000000     0.753100000000     0          
C249     C      0.335800000000     0.165500000000     0.712000000000     0          
H250     H      0.333100000000     0.125400000000     0.723100000000     0          
C251     C      0.369300000000     0.181900000000     0.656800000000     0          
C252     C      0.369500000000     0.239000000000     0.636500000000     0          
H253     H      0.393000000000     0.251300000000     0.598000000000     0          
C254     C      0.335300000000     0.278600000000     0.672500000000     0          
C255     C      0.404000000000     0.137500000000     0.616300000000     0          
F256     F      0.223000000000     0.177900000000     0.830700000000     0          
F257     F      0.296000000000     0.213800000000     0.884700000000     0          
F258     F      0.299500000000     0.127000000000     0.844800000000     0          
H259     H      0.333900000000     0.317700000000     0.657000000000     0          
C260     C      0.283300000000     0.182300000000     0.823300000000     0          
Zr261    Zr     0.000000000000     0.424250000000     0.092350000000     0          
O262     O      0.000000000000     0.440300000000     0.206100000000     0          
O263     O      0.000000000000     0.331800000000     0.062900000000     0          
C264     C      0.000000000000     0.447510000000     0.349600000000     0          
H265     H      0.000000000000     0.411800000000     0.324400000000     0          
C266     C      0.000000000000     0.447750000000     0.423200000000     0          
C267     C      0.000000000000     0.215500000000     0.063900000000     0          
H268     H      0.000000000000     0.236100000000     0.107400000000     0          
C269     C      0.000000000000     0.154800000000     0.063800000000     0          
H270     H      0.000000000000     0.134100000000     0.107300000000     0          
N271     N      0.000000000000     0.394700000000     0.460200000000     0          
H272     H      0.000000000000     0.361800000000     0.436800000000     0          
H273     H      0.000000000000     0.394500000000     0.506900000000     0          
Zr274    Zr     0.000000000000     0.575750000000     0.092350000000     0          
O275     O      0.000000000000     0.559700000000     0.206100000000     0          
O276     O      0.000000000000     0.668200000000     0.062900000000     0          
C277     C      0.000000000000     0.552490000000     0.349600000000     0          
H278     H      0.000000000000     0.588200000000     0.324400000000     0          
C279     C      0.000000000000     0.552250000000     0.423200000000     0          
C280     C      0.000000000000     0.784500000000     0.063900000000     0          
H281     H      0.000000000000     0.763900000000     0.107400000000     0          
C282     C      0.000000000000     0.845200000000     0.063800000000     0          
H283     H      0.000000000000     0.865900000000     0.107300000000     0          
H284     H      0.000000000000     0.587900000000     0.448400000000     0          
Zr285    Zr     0.575750000000     0.000000000000     0.592350000000     0          
O286     O      0.559700000000     0.000000000000     0.706100000000     0          
O287     O      0.668200000000     0.000000000000     0.562900000000     0          
C288     C      0.552490000000     0.000000000000     0.849600000000     0          
H289     H      0.588200000000     0.000000000000     0.824400000000     0          
C290     C      0.552250000000     0.000000000000     0.923200000000     0          
C291     C      0.784500000000     0.000000000000     0.563900000000     0          
H292     H      0.763900000000     0.000000000000     0.607400000000     0          
C293     C      0.845200000000     0.000000000000     0.563800000000     0          
H294     H      0.865900000000     0.000000000000     0.607300000000     0          
N295     N      0.605300000000     0.000000000000     0.960200000000     0          
H296     H      0.638200000000     0.000000000000     0.936800000000     0          
H297     H      0.605500000000     0.000000000000     0.006900000000     0          
Zr298    Zr     0.424250000000     0.000000000000     0.592350000000     0          
O299     O      0.440300000000     0.000000000000     0.706100000000     0          
O300     O      0.331800000000     0.000000000000     0.562900000000     0          
C301     C      0.447510000000     0.000000000000     0.849600000000     0          
H302     H      0.411800000000     0.000000000000     0.824400000000     0          
C303     C      0.447750000000     0.000000000000     0.923200000000     0          
C304     C      0.215500000000     0.000000000000     0.563900000000     0          
H305     H      0.236100000000     0.000000000000     0.607400000000     0          
C306     C      0.154800000000     0.000000000000     0.563800000000     0          
H307     H      0.134100000000     0.000000000000     0.607300000000     0          
H308     H      0.412100000000     0.000000000000     0.948400000000     0          
Zr309    Zr     0.000000000000     0.424250000000     0.907650000000     0          
O310     O      0.000000000000     0.440300000000     0.793900000000     0          
O311     O      0.000000000000     0.331800000000     0.937100000000     0          
C312     C      0.000000000000     0.447510000000     0.650400000000     0          
H313     H      0.000000000000     0.411800000000     0.675600000000     0          
C314     C      0.000000000000     0.447750000000     0.576800000000     0          
C315     C      0.000000000000     0.215500000000     0.936100000000     0          
H316     H      0.000000000000     0.236100000000     0.892600000000     0          
C317     C      0.000000000000     0.154800000000     0.936200000000     0          
H318     H      0.000000000000     0.134100000000     0.892700000000     0          
H319     H      0.000000000000     0.412100000000     0.551600000000     0          
Zr320    Zr     0.000000000000     0.575750000000     0.907650000000     0          
O321     O      0.000000000000     0.559700000000     0.793900000000     0          
O322     O      0.000000000000     0.668200000000     0.937100000000     0          
C323     C      0.000000000000     0.552490000000     0.650400000000     0          
H324     H      0.000000000000     0.588200000000     0.675600000000     0          
C325     C      0.000000000000     0.552250000000     0.576800000000     0          
C326     C      0.000000000000     0.784500000000     0.936100000000     0          
H327     H      0.000000000000     0.763900000000     0.892600000000     0          
C328     C      0.000000000000     0.845200000000     0.936200000000     0          
H329     H      0.000000000000     0.865900000000     0.892700000000     0          
N330     N      0.000000000000     0.605300000000     0.539800000000     0          
H331     H      0.000000000000     0.638200000000     0.563200000000     0          
H332     H      0.000000000000     0.605500000000     0.493100000000     0          
Zr333    Zr     0.424250000000     0.000000000000     0.407650000000     0          
O334     O      0.440300000000     0.000000000000     0.293900000000     0          
O335     O      0.331800000000     0.000000000000     0.437100000000     0          
C336     C      0.447510000000     0.000000000000     0.150400000000     0          
H337     H      0.411800000000     0.000000000000     0.175600000000     0          
C338     C      0.447750000000     0.000000000000     0.076800000000     0          
C339     C      0.215500000000     0.000000000000     0.436100000000     0          
H340     H      0.236100000000     0.000000000000     0.392600000000     0          
C341     C      0.154800000000     0.000000000000     0.436200000000     0          
H342     H      0.134100000000     0.000000000000     0.392700000000     0          
N343     N      0.394700000000     0.000000000000     0.039800000000     0          
H344     H      0.361800000000     0.000000000000     0.063200000000     0          
H345     H      0.394500000000     0.000000000000     0.993100000000     0          
Zr346    Zr     0.575750000000     0.000000000000     0.407650000000     0          
O347     O      0.559700000000     0.000000000000     0.293900000000     0          
O348     O      0.668200000000     0.000000000000     0.437100000000     0          
C349     C      0.552490000000     0.000000000000     0.150400000000     0          
H350     H      0.588200000000     0.000000000000     0.175600000000     0          
C351     C      0.552250000000     0.000000000000     0.076800000000     0          
C352     C      0.784500000000     0.000000000000     0.436100000000     0          
H353     H      0.763900000000     0.000000000000     0.392600000000     0          
C354     C      0.845200000000     0.000000000000     0.436200000000     0          
H355     H      0.865900000000     0.000000000000     0.392700000000     0          
H356     H      0.587900000000     0.000000000000     0.051600000000     0          
Zr357    Zr     0.107520000000     0.500000000000     0.000000000000     0          
Zr358    Zr     0.892480000000     0.500000000000     0.000000000000     0          
Zr359    Zr     0.500000000000     0.107520000000     0.500000000000     0          
Zr360    Zr     0.500000000000     0.892480000000     0.500000000000     0          
O361     O      0.052900000000     0.425800000000     0.000000000000     0          
C362     C      0.052320000000     0.030140000000     0.000000000000     0          
H363     H      0.088000000000     0.050700000000     0.000000000000     0          
O364     O      0.947100000000     0.574200000000     0.000000000000     0          
C365     C      0.947680000000     0.969860000000     0.000000000000     0          
H366     H      0.912000000000     0.949300000000     0.000000000000     0          
O367     O      0.574200000000     0.052900000000     0.500000000000     0          
C368     C      0.969860000000     0.052320000000     0.500000000000     0          
H369     H      0.949300000000     0.088000000000     0.500000000000     0          
O370     O      0.425800000000     0.947100000000     0.500000000000     0          
C371     C      0.030140000000     0.947680000000     0.500000000000     0          
H372     H      0.050700000000     0.912000000000     0.500000000000     0          
O373     O      0.947100000000     0.425800000000     0.000000000000     0          
C374     C      0.947680000000     0.030140000000     0.000000000000     0          
C375     C      0.890700000000     0.061500000000     0.000000000000     0          
H376     H      0.897600000000     0.103400000000     0.000000000000     0          
O377     O      0.052900000000     0.574200000000     0.000000000000     0          
C378     C      0.052320000000     0.969860000000     0.000000000000     0          
H379     H      0.088000000000     0.949300000000     0.000000000000     0          
O380     O      0.425800000000     0.052900000000     0.500000000000     0          
C381     C      0.030140000000     0.052320000000     0.500000000000     0          
H382     H      0.050700000000     0.088000000000     0.500000000000     0          
O383     O      0.574200000000     0.947100000000     0.500000000000     0          
C384     C      0.969860000000     0.947680000000     0.500000000000     0          
C385     C      0.938500000000     0.890700000000     0.500000000000     0          
H386     H      0.896600000000     0.897600000000     0.500000000000     0          
O387     O      0.052900000000     0.500000000000     0.092100000000     0          
O388     O      0.947100000000     0.500000000000     0.092100000000     0          
O389     O      0.500000000000     0.052900000000     0.592100000000     0          
O390     O      0.500000000000     0.947100000000     0.592100000000     0          
O391     O      0.947100000000     0.500000000000     0.907900000000     0          
O392     O      0.052900000000     0.500000000000     0.907900000000     0          
O393     O      0.500000000000     0.052900000000     0.407900000000     0          
O394     O      0.500000000000     0.947100000000     0.407900000000     0          
C395     C      0.000000000000     0.500000000000     0.233700000000     0          
C396     C      0.000000000000     0.500000000000     0.312700000000     0          
C397     C      0.000000000000     0.500000000000     0.460400000000     0          
C398     C      0.500000000000     0.000000000000     0.733700000000     0          
C399     C      0.500000000000     0.000000000000     0.812700000000     0          
C400     C      0.500000000000     0.000000000000     0.960400000000     0          
C401     C      0.000000000000     0.500000000000     0.766300000000     0          
C402     C      0.000000000000     0.500000000000     0.687300000000     0          
C403     C      0.000000000000     0.500000000000     0.539600000000     0          
C404     C      0.500000000000     0.000000000000     0.266300000000     0          
C405     C      0.500000000000     0.000000000000     0.187300000000     0          
C406     C      0.500000000000     0.000000000000     0.039600000000     0          
C407     C      0.000000000000     0.309900000000     0.000000000000     0          
C408     C      0.000000000000     0.245400000000     0.000000000000     0          
C409     C      0.000000000000     0.124900000000     0.000000000000     0          
C410     C      0.000000000000     0.060400000000     0.000000000000     0          
C411     C      0.000000000000     0.690100000000     0.000000000000     0          
C412     C      0.000000000000     0.754600000000     0.000000000000     0          
C413     C      0.000000000000     0.875100000000     0.000000000000     0          
C414     C      0.000000000000     0.939600000000     0.000000000000     0          
C415     C      0.690100000000     0.000000000000     0.500000000000     0          
C416     C      0.754600000000     0.000000000000     0.500000000000     0          
C417     C      0.875100000000     0.000000000000     0.500000000000     0          
C418     C      0.939600000000     0.000000000000     0.500000000000     0          
C419     C      0.309900000000     0.000000000000     0.500000000000     0          
C420     C      0.245400000000     0.000000000000     0.500000000000     0          
C421     C      0.124900000000     0.000000000000     0.500000000000     0          
C422     C      0.060400000000     0.000000000000     0.500000000000     0          


