data_NEJMEX

_audit_creation_method RASPA-1.0
_audit_creation_date 2020-11-2
_audit_author_name 'Rocio Bueno-Perez'

_cell_length_a    23.126
_cell_length_b    23.126
_cell_length_c    18.8542
_cell_angle_alpha 90
_cell_angle_beta  90
_cell_angle_gamma 90
_cell_volume      10083.5

_symmetry_cell_setting          triclinic
_symmetry_space_group_name_Hall 'P 1'
_symmetry_space_group_name_H-M  'P 1'
_symmetry_Int_Tables_number     1

_symmetry_equiv_pos_as_xyz 'x,y,z'

loop_
_atom_site_label
_atom_site_type_symbol
_atom_site_fract_x
_atom_site_fract_y
_atom_site_fract_z
_atom_site_charge
O1       O      0.391480000000     0.084260000000     0.132800000000     0          
O2       O      0.441240000000     0.155920000000     0.072700000000     0          
C3       C      0.302900000000     0.261500000000     0.230800000000     0          
C4       C      0.335200000000     0.277500000000     0.172700000000     0          
C5       C      0.369400000000     0.238000000000     0.136600000000     0          
H6       H      0.392700000000     0.250100000000     0.097800000000     0          
C7       C      0.369200000000     0.181900000000     0.157400000000     0          
C8       C      0.336600000000     0.165700000000     0.214300000000     0          
H9       H      0.335500000000     0.126000000000     0.227600000000     0          
C10      C      0.305300000000     0.205500000000     0.253100000000     0          
C11      C      0.404200000000     0.137100000000     0.117400000000     0          
H12      H      0.334000000000     0.316500000000     0.156900000000     0          
C13      C      0.277500000000     0.183700000000     0.319900000000     0          
F14      F      0.294000000000     0.129000000000     0.342700000000     0          
F15      F      0.283900000000     0.214000000000     0.380800000000     0          
F16      F      0.218900000000     0.175000000000     0.318700000000     0          
F17      F      0.661900000000     0.619300000000     0.187000000000     0          
F18      F      0.720000000000     0.649500000000     0.109600000000     0          
F19      F      0.630200000000     0.650600000000     0.088500000000     0          
O20      O      0.608520000000     0.915740000000     0.132800000000     0          
O21      O      0.558760000000     0.844080000000     0.072700000000     0          
C22      C      0.697100000000     0.738500000000     0.230800000000     0          
C23      C      0.664800000000     0.722500000000     0.172700000000     0          
C24      C      0.630600000000     0.762000000000     0.136600000000     0          
H25      H      0.607300000000     0.749900000000     0.097800000000     0          
C26      C      0.630800000000     0.818100000000     0.157400000000     0          
C27      C      0.663400000000     0.834300000000     0.214300000000     0          
H28      H      0.664500000000     0.874000000000     0.227600000000     0          
C29      C      0.694700000000     0.794500000000     0.253100000000     0          
H30      H      0.714300000000     0.806100000000     0.295000000000     0          
C31      C      0.595800000000     0.862900000000     0.117400000000     0          
C32      C      0.667400000000     0.663100000000     0.141000000000     0          
F33      F      0.619300000000     0.338100000000     0.687000000000     0          
F34      F      0.649500000000     0.280000000000     0.609600000000     0          
F35      F      0.650600000000     0.369800000000     0.588500000000     0          
O36      O      0.915740000000     0.391480000000     0.632800000000     0          
O37      O      0.844080000000     0.441240000000     0.572700000000     0          
C38      C      0.738500000000     0.302900000000     0.730800000000     0          
C39      C      0.722500000000     0.335200000000     0.672700000000     0          
C40      C      0.762000000000     0.369400000000     0.636600000000     0          
H41      H      0.749900000000     0.392700000000     0.597800000000     0          
C42      C      0.818100000000     0.369200000000     0.657400000000     0          
C43      C      0.834300000000     0.336600000000     0.714300000000     0          
H44      H      0.874000000000     0.335500000000     0.727600000000     0          
C45      C      0.794500000000     0.305300000000     0.753100000000     0          
H46      H      0.806100000000     0.285700000000     0.795000000000     0          
C47      C      0.862900000000     0.404200000000     0.617400000000     0          
C48      C      0.663100000000     0.332600000000     0.641000000000     0          
O49      O      0.084260000000     0.608520000000     0.632800000000     0          
O50      O      0.155920000000     0.558760000000     0.572700000000     0          
C51      C      0.261500000000     0.697100000000     0.730800000000     0          
C52      C      0.277500000000     0.664800000000     0.672700000000     0          
C53      C      0.238000000000     0.630600000000     0.636600000000     0          
H54      H      0.250100000000     0.607300000000     0.597800000000     0          
C55      C      0.181900000000     0.630800000000     0.657400000000     0          
C56      C      0.165700000000     0.663400000000     0.714300000000     0          
H57      H      0.126000000000     0.664500000000     0.727600000000     0          
C58      C      0.205500000000     0.694700000000     0.753100000000     0          
C59      C      0.137100000000     0.595800000000     0.617400000000     0          
H60      H      0.316500000000     0.666000000000     0.656900000000     0          
C61      C      0.183700000000     0.722500000000     0.819900000000     0          
F62      F      0.129000000000     0.706000000000     0.842700000000     0          
F63      F      0.214000000000     0.716100000000     0.880800000000     0          
F64      F      0.175000000000     0.781100000000     0.818700000000     0          
O65      O      0.608520000000     0.084260000000     0.867200000000     0          
O66      O      0.558760000000     0.155920000000     0.927300000000     0          
C67      C      0.697100000000     0.261500000000     0.769200000000     0          
C68      C      0.664800000000     0.277500000000     0.827300000000     0          
C69      C      0.630600000000     0.238000000000     0.863400000000     0          
H70      H      0.607300000000     0.250100000000     0.902200000000     0          
C71      C      0.630800000000     0.181900000000     0.842600000000     0          
C72      C      0.663400000000     0.165700000000     0.785700000000     0          
H73      H      0.664500000000     0.126000000000     0.772400000000     0          
C74      C      0.694700000000     0.205500000000     0.746900000000     0          
C75      C      0.595800000000     0.137100000000     0.882600000000     0          
H76      H      0.666000000000     0.316500000000     0.843100000000     0          
C77      C      0.722500000000     0.183700000000     0.680100000000     0          
F78      F      0.706000000000     0.129000000000     0.657300000000     0          
F79      F      0.716100000000     0.214000000000     0.619200000000     0          
F80      F      0.781100000000     0.175000000000     0.681300000000     0          
F81      F      0.338100000000     0.619300000000     0.813000000000     0          
F82      F      0.280000000000     0.649500000000     0.890400000000     0          
F83      F      0.369800000000     0.650600000000     0.911500000000     0          
O84      O      0.391480000000     0.915740000000     0.867200000000     0          
O85      O      0.441240000000     0.844080000000     0.927300000000     0          
C86      C      0.302900000000     0.738500000000     0.769200000000     0          
C87      C      0.335200000000     0.722500000000     0.827300000000     0          
C88      C      0.369400000000     0.762000000000     0.863400000000     0          
H89      H      0.392700000000     0.749900000000     0.902200000000     0          
C90      C      0.369200000000     0.818100000000     0.842600000000     0          
C91      C      0.336600000000     0.834300000000     0.785700000000     0          
H92      H      0.335500000000     0.874000000000     0.772400000000     0          
C93      C      0.305300000000     0.794500000000     0.746900000000     0          
H94      H      0.285700000000     0.806100000000     0.705000000000     0          
C95      C      0.404200000000     0.862900000000     0.882600000000     0          
C96      C      0.332600000000     0.663100000000     0.859000000000     0          
F97      F      0.380700000000     0.338100000000     0.313000000000     0          
F98      F      0.350500000000     0.280000000000     0.390400000000     0          
F99      F      0.349400000000     0.369800000000     0.411500000000     0          
O100     O      0.084260000000     0.391480000000     0.367200000000     0          
O101     O      0.155920000000     0.441240000000     0.427300000000     0          
C102     C      0.261500000000     0.302900000000     0.269200000000     0          
C103     C      0.277500000000     0.335200000000     0.327300000000     0          
C104     C      0.238000000000     0.369400000000     0.363400000000     0          
H105     H      0.250100000000     0.392700000000     0.402200000000     0          
C106     C      0.181900000000     0.369200000000     0.342600000000     0          
C107     C      0.165700000000     0.336600000000     0.285700000000     0          
H108     H      0.126000000000     0.335500000000     0.272400000000     0          
C109     C      0.205500000000     0.305300000000     0.246900000000     0          
H110     H      0.193900000000     0.285700000000     0.205000000000     0          
C111     C      0.137100000000     0.404200000000     0.382600000000     0          
C112     C      0.336900000000     0.332600000000     0.359000000000     0          
O113     O      0.915740000000     0.608520000000     0.367200000000     0          
O114     O      0.844080000000     0.558760000000     0.427300000000     0          
C115     C      0.738500000000     0.697100000000     0.269200000000     0          
C116     C      0.722500000000     0.664800000000     0.327300000000     0          
C117     C      0.762000000000     0.630600000000     0.363400000000     0          
H118     H      0.749900000000     0.607300000000     0.402200000000     0          
C119     C      0.818100000000     0.630800000000     0.342600000000     0          
C120     C      0.834300000000     0.663400000000     0.285700000000     0          
H121     H      0.874000000000     0.664500000000     0.272400000000     0          
C122     C      0.794500000000     0.694700000000     0.246900000000     0          
C123     C      0.862900000000     0.595800000000     0.382600000000     0          
H124     H      0.683500000000     0.666000000000     0.343100000000     0          
C125     C      0.816300000000     0.722500000000     0.180100000000     0          
F126     F      0.871000000000     0.706000000000     0.157300000000     0          
F127     F      0.786000000000     0.716100000000     0.119200000000     0          
F128     F      0.825000000000     0.781100000000     0.181300000000     0          
F129     F      0.661900000000     0.619300000000     0.813000000000     0          
F130     F      0.720000000000     0.649500000000     0.890400000000     0          
F131     F      0.630200000000     0.650600000000     0.911500000000     0          
O132     O      0.608520000000     0.915740000000     0.867200000000     0          
O133     O      0.558760000000     0.844080000000     0.927300000000     0          
C134     C      0.697100000000     0.738500000000     0.769200000000     0          
C135     C      0.664800000000     0.722500000000     0.827300000000     0          
C136     C      0.630600000000     0.762000000000     0.863400000000     0          
H137     H      0.607300000000     0.749900000000     0.902200000000     0          
C138     C      0.630800000000     0.818100000000     0.842600000000     0          
C139     C      0.663400000000     0.834300000000     0.785700000000     0          
H140     H      0.664500000000     0.874000000000     0.772400000000     0          
C141     C      0.694700000000     0.794500000000     0.746900000000     0          
H142     H      0.714300000000     0.806100000000     0.705000000000     0          
C143     C      0.595800000000     0.862900000000     0.882600000000     0          
C144     C      0.667400000000     0.663100000000     0.859000000000     0          
F145     F      0.338100000000     0.380700000000     0.813000000000     0          
F146     F      0.280000000000     0.350500000000     0.890400000000     0          
F147     F      0.369800000000     0.349400000000     0.911500000000     0          
O148     O      0.391480000000     0.084260000000     0.867200000000     0          
O149     O      0.441240000000     0.155920000000     0.927300000000     0          
C150     C      0.302900000000     0.261500000000     0.769200000000     0          
C151     C      0.335200000000     0.277500000000     0.827300000000     0          
C152     C      0.369400000000     0.238000000000     0.863400000000     0          
H153     H      0.392700000000     0.250100000000     0.902200000000     0          
C154     C      0.369200000000     0.181900000000     0.842600000000     0          
C155     C      0.336600000000     0.165700000000     0.785700000000     0          
H156     H      0.335500000000     0.126000000000     0.772400000000     0          
C157     C      0.305300000000     0.205500000000     0.746900000000     0          
H158     H      0.285700000000     0.193900000000     0.705000000000     0          
C159     C      0.404200000000     0.137100000000     0.882600000000     0          
C160     C      0.332600000000     0.336900000000     0.859000000000     0          
O161     O      0.084260000000     0.608520000000     0.367200000000     0          
O162     O      0.155920000000     0.558760000000     0.427300000000     0          
C163     C      0.261500000000     0.697100000000     0.269200000000     0          
C164     C      0.277500000000     0.664800000000     0.327300000000     0          
C165     C      0.238000000000     0.630600000000     0.363400000000     0          
H166     H      0.250100000000     0.607300000000     0.402200000000     0          
C167     C      0.181900000000     0.630800000000     0.342600000000     0          
C168     C      0.165700000000     0.663400000000     0.285700000000     0          
H169     H      0.126000000000     0.664500000000     0.272400000000     0          
C170     C      0.205500000000     0.694700000000     0.246900000000     0          
C171     C      0.137100000000     0.595800000000     0.382600000000     0          
H172     H      0.316500000000     0.666000000000     0.343100000000     0          
C173     C      0.183700000000     0.722500000000     0.180100000000     0          
F174     F      0.129000000000     0.706000000000     0.157300000000     0          
F175     F      0.214000000000     0.716100000000     0.119200000000     0          
F176     F      0.175000000000     0.781100000000     0.181300000000     0          
O177     O      0.915740000000     0.391480000000     0.367200000000     0          
O178     O      0.844080000000     0.441240000000     0.427300000000     0          
C179     C      0.738500000000     0.302900000000     0.269200000000     0          
C180     C      0.722500000000     0.335200000000     0.327300000000     0          
C181     C      0.762000000000     0.369400000000     0.363400000000     0          
H182     H      0.749900000000     0.392700000000     0.402200000000     0          
C183     C      0.818100000000     0.369200000000     0.342600000000     0          
C184     C      0.834300000000     0.336600000000     0.285700000000     0          
H185     H      0.874000000000     0.335500000000     0.272400000000     0          
C186     C      0.794500000000     0.305300000000     0.246900000000     0          
C187     C      0.862900000000     0.404200000000     0.382600000000     0          
H188     H      0.683500000000     0.334000000000     0.343100000000     0          
C189     C      0.816300000000     0.277500000000     0.180100000000     0          
F190     F      0.871000000000     0.294000000000     0.157300000000     0          
F191     F      0.786000000000     0.283900000000     0.119200000000     0          
F192     F      0.825000000000     0.218900000000     0.181300000000     0          
F193     F      0.338100000000     0.619300000000     0.187000000000     0          
F194     F      0.280000000000     0.649500000000     0.109600000000     0          
F195     F      0.369800000000     0.650600000000     0.088500000000     0          
O196     O      0.391480000000     0.915740000000     0.132800000000     0          
O197     O      0.441240000000     0.844080000000     0.072700000000     0          
C198     C      0.302900000000     0.738500000000     0.230800000000     0          
C199     C      0.335200000000     0.722500000000     0.172700000000     0          
C200     C      0.369400000000     0.762000000000     0.136600000000     0          
H201     H      0.392700000000     0.749900000000     0.097800000000     0          
C202     C      0.369200000000     0.818100000000     0.157400000000     0          
C203     C      0.336600000000     0.834300000000     0.214300000000     0          
H204     H      0.335500000000     0.874000000000     0.227600000000     0          
C205     C      0.305300000000     0.794500000000     0.253100000000     0          
H206     H      0.285700000000     0.806100000000     0.295000000000     0          
C207     C      0.404200000000     0.862900000000     0.117400000000     0          
C208     C      0.332600000000     0.663100000000     0.141000000000     0          
F209     F      0.661900000000     0.380700000000     0.187000000000     0          
F210     F      0.720000000000     0.350500000000     0.109600000000     0          
F211     F      0.630200000000     0.349400000000     0.088500000000     0          
O212     O      0.608520000000     0.084260000000     0.132800000000     0          
O213     O      0.558760000000     0.155920000000     0.072700000000     0          
C214     C      0.697100000000     0.261500000000     0.230800000000     0          
C215     C      0.664800000000     0.277500000000     0.172700000000     0          
C216     C      0.630600000000     0.238000000000     0.136600000000     0          
H217     H      0.607300000000     0.250100000000     0.097800000000     0          
C218     C      0.630800000000     0.181900000000     0.157400000000     0          
C219     C      0.663400000000     0.165700000000     0.214300000000     0          
H220     H      0.664500000000     0.126000000000     0.227600000000     0          
C221     C      0.694700000000     0.205500000000     0.253100000000     0          
H222     H      0.714300000000     0.193900000000     0.295000000000     0          
C223     C      0.595800000000     0.137100000000     0.117400000000     0          
C224     C      0.667400000000     0.336900000000     0.141000000000     0          
O225     O      0.915740000000     0.608520000000     0.632800000000     0          
O226     O      0.844080000000     0.558760000000     0.572700000000     0          
C227     C      0.738500000000     0.697100000000     0.730800000000     0          
C228     C      0.722500000000     0.664800000000     0.672700000000     0          
C229     C      0.762000000000     0.630600000000     0.636600000000     0          
H230     H      0.749900000000     0.607300000000     0.597800000000     0          
C231     C      0.818100000000     0.630800000000     0.657400000000     0          
C232     C      0.834300000000     0.663400000000     0.714300000000     0          
H233     H      0.874000000000     0.664500000000     0.727600000000     0          
C234     C      0.794500000000     0.694700000000     0.753100000000     0          
C235     C      0.862900000000     0.595800000000     0.617400000000     0          
H236     H      0.683500000000     0.666000000000     0.656900000000     0          
C237     C      0.816300000000     0.722500000000     0.819900000000     0          
F238     F      0.871000000000     0.706000000000     0.842700000000     0          
F239     F      0.786000000000     0.716100000000     0.880800000000     0          
F240     F      0.825000000000     0.781100000000     0.818700000000     0          
O241     O      0.084260000000     0.391480000000     0.632800000000     0          
O242     O      0.155920000000     0.441240000000     0.572700000000     0          
C243     C      0.261500000000     0.302900000000     0.730800000000     0          
C244     C      0.277500000000     0.335200000000     0.672700000000     0          
C245     C      0.238000000000     0.369400000000     0.636600000000     0          
H246     H      0.250100000000     0.392700000000     0.597800000000     0          
C247     C      0.181900000000     0.369200000000     0.657400000000     0          
C248     C      0.165700000000     0.336600000000     0.714300000000     0          
H249     H      0.126000000000     0.335500000000     0.727600000000     0          
C250     C      0.205500000000     0.305300000000     0.753100000000     0          
C251     C      0.137100000000     0.404200000000     0.617400000000     0          
H252     H      0.316500000000     0.334000000000     0.656900000000     0          
C253     C      0.183700000000     0.277500000000     0.819900000000     0          
F254     F      0.129000000000     0.294000000000     0.842700000000     0          
F255     F      0.214000000000     0.283900000000     0.880800000000     0          
F256     F      0.175000000000     0.218900000000     0.818700000000     0          
Zr257    Zr     0.424320000000     0.000000000000     0.092410000000     0          
F258     F      0.345100000000     0.000000000000     0.407400000000     0          
O259     O      0.332600000000     0.000000000000     0.061400000000     0          
O260     O      0.441600000000     0.000000000000     0.206100000000     0          
C261     C      0.153800000000     0.000000000000     0.063900000000     0          
H262     H      0.133300000000     0.000000000000     0.107500000000     0          
C263     C      0.213800000000     0.000000000000     0.064000000000     0          
H264     H      0.234400000000     0.000000000000     0.107700000000     0          
C265     C      0.447800000000     0.000000000000     0.423100000000     0          
C266     C      0.447770000000     0.000000000000     0.349300000000     0          
H267     H      0.412200000000     0.000000000000     0.324000000000     0          
C268     C      0.389400000000     0.000000000000     0.458400000000     0          
Zr269    Zr     0.575680000000     0.000000000000     0.092410000000     0          
O270     O      0.667400000000     0.000000000000     0.061400000000     0          
O271     O      0.558400000000     0.000000000000     0.206100000000     0          
C272     C      0.846200000000     0.000000000000     0.063900000000     0          
H273     H      0.866700000000     0.000000000000     0.107500000000     0          
C274     C      0.786200000000     0.000000000000     0.064000000000     0          
H275     H      0.765600000000     0.000000000000     0.107700000000     0          
C276     C      0.552200000000     0.000000000000     0.423100000000     0          
C277     C      0.552230000000     0.000000000000     0.349300000000     0          
H278     H      0.587800000000     0.000000000000     0.324000000000     0          
H279     H      0.587800000000     0.000000000000     0.448300000000     0          
Zr280    Zr     0.000000000000     0.424320000000     0.592410000000     0          
F281     F      0.000000000000     0.345100000000     0.907400000000     0          
O282     O      0.000000000000     0.332600000000     0.561400000000     0          
O283     O      0.000000000000     0.441600000000     0.706100000000     0          
C284     C      0.000000000000     0.153800000000     0.563900000000     0          
H285     H      0.000000000000     0.133300000000     0.607500000000     0          
C286     C      0.000000000000     0.213800000000     0.564000000000     0          
H287     H      0.000000000000     0.234400000000     0.607700000000     0          
C288     C      0.000000000000     0.447800000000     0.923100000000     0          
C289     C      0.000000000000     0.447770000000     0.849300000000     0          
H290     H      0.000000000000     0.412200000000     0.824000000000     0          
C291     C      0.000000000000     0.389400000000     0.958400000000     0          
Zr292    Zr     0.000000000000     0.575680000000     0.592410000000     0          
O293     O      0.000000000000     0.667400000000     0.561400000000     0          
O294     O      0.000000000000     0.558400000000     0.706100000000     0          
C295     C      0.000000000000     0.846200000000     0.563900000000     0          
H296     H      0.000000000000     0.866700000000     0.607500000000     0          
C297     C      0.000000000000     0.786200000000     0.564000000000     0          
H298     H      0.000000000000     0.765600000000     0.607700000000     0          
C299     C      0.000000000000     0.552200000000     0.923100000000     0          
C300     C      0.000000000000     0.552230000000     0.849300000000     0          
H301     H      0.000000000000     0.587800000000     0.824000000000     0          
H302     H      0.000000000000     0.587800000000     0.948300000000     0          
Zr303    Zr     0.575680000000     0.000000000000     0.907590000000     0          
F304     F      0.654900000000     0.000000000000     0.592600000000     0          
O305     O      0.667400000000     0.000000000000     0.938600000000     0          
O306     O      0.558400000000     0.000000000000     0.793900000000     0          
C307     C      0.846200000000     0.000000000000     0.936100000000     0          
H308     H      0.866700000000     0.000000000000     0.892500000000     0          
C309     C      0.786200000000     0.000000000000     0.936000000000     0          
H310     H      0.765600000000     0.000000000000     0.892300000000     0          
C311     C      0.552200000000     0.000000000000     0.576900000000     0          
C312     C      0.552230000000     0.000000000000     0.650700000000     0          
H313     H      0.587800000000     0.000000000000     0.676000000000     0          
C314     C      0.610600000000     0.000000000000     0.541600000000     0          
Zr315    Zr     0.424320000000     0.000000000000     0.907590000000     0          
O316     O      0.332600000000     0.000000000000     0.938600000000     0          
O317     O      0.441600000000     0.000000000000     0.793900000000     0          
C318     C      0.153800000000     0.000000000000     0.936100000000     0          
H319     H      0.133300000000     0.000000000000     0.892500000000     0          
C320     C      0.213800000000     0.000000000000     0.936000000000     0          
H321     H      0.234400000000     0.000000000000     0.892300000000     0          
C322     C      0.447800000000     0.000000000000     0.576900000000     0          
C323     C      0.447770000000     0.000000000000     0.650700000000     0          
H324     H      0.412200000000     0.000000000000     0.676000000000     0          
H325     H      0.412200000000     0.000000000000     0.551700000000     0          
Zr326    Zr     0.000000000000     0.424320000000     0.407590000000     0          
O327     O      0.000000000000     0.332600000000     0.438600000000     0          
O328     O      0.000000000000     0.441600000000     0.293900000000     0          
C329     C      0.000000000000     0.153800000000     0.436100000000     0          
H330     H      0.000000000000     0.133300000000     0.392500000000     0          
C331     C      0.000000000000     0.213800000000     0.436000000000     0          
H332     H      0.000000000000     0.234400000000     0.392300000000     0          
C333     C      0.000000000000     0.447800000000     0.076900000000     0          
C334     C      0.000000000000     0.447770000000     0.150700000000     0          
H335     H      0.000000000000     0.412200000000     0.176000000000     0          
H336     H      0.000000000000     0.412200000000     0.051700000000     0          
Zr337    Zr     0.000000000000     0.575680000000     0.407590000000     0          
F338     F      0.000000000000     0.654900000000     0.092600000000     0          
O339     O      0.000000000000     0.667400000000     0.438600000000     0          
O340     O      0.000000000000     0.558400000000     0.293900000000     0          
C341     C      0.000000000000     0.846200000000     0.436100000000     0          
H342     H      0.000000000000     0.866700000000     0.392500000000     0          
C343     C      0.000000000000     0.786200000000     0.436000000000     0          
H344     H      0.000000000000     0.765600000000     0.392300000000     0          
C345     C      0.000000000000     0.552200000000     0.076900000000     0          
C346     C      0.000000000000     0.552230000000     0.150700000000     0          
H347     H      0.000000000000     0.587800000000     0.176000000000     0          
C348     C      0.000000000000     0.610600000000     0.041600000000     0          
Zr349    Zr     0.500000000000     0.107500000000     0.000000000000     0          
Zr350    Zr     0.500000000000     0.892500000000     0.000000000000     0          
Zr351    Zr     0.892500000000     0.500000000000     0.500000000000     0          
Zr352    Zr     0.107500000000     0.500000000000     0.500000000000     0          
F353     F      0.380800000000     0.951300000000     0.500000000000     0          
F354     F      0.619200000000     0.048700000000     0.500000000000     0          
F355     F      0.048700000000     0.380800000000     0.000000000000     0          
F356     F      0.951300000000     0.619200000000     0.000000000000     0          
F357     F      0.619200000000     0.951300000000     0.500000000000     0          
F358     F      0.380800000000     0.048700000000     0.500000000000     0          
F359     F      0.951300000000     0.380800000000     0.000000000000     0          
F360     F      0.048700000000     0.619200000000     0.000000000000     0          
O361     O      0.425900000000     0.053200000000     0.000000000000     0          
C362     C      0.030040000000     0.052240000000     0.000000000000     0          
H363     H      0.050600000000     0.087800000000     0.000000000000     0          
O364     O      0.574100000000     0.946800000000     0.000000000000     0          
N365     N      0.940100000000     0.894900000000     0.000000000000     0          
H366     H      0.959400000000     0.862100000000     0.000000000000     0          
H367     H      0.902100000000     0.894600000000     0.000000000000     0          
C368     C      0.969960000000     0.947760000000     0.000000000000     0          
O369     O      0.946800000000     0.425900000000     0.500000000000     0          
C370     C      0.947760000000     0.030040000000     0.500000000000     0          
H371     H      0.912200000000     0.050600000000     0.500000000000     0          
O372     O      0.053200000000     0.574100000000     0.500000000000     0          
N373     N      0.105100000000     0.940100000000     0.500000000000     0          
H374     H      0.137900000000     0.959400000000     0.500000000000     0          
H375     H      0.105400000000     0.902100000000     0.500000000000     0          
C376     C      0.052240000000     0.969960000000     0.500000000000     0          
O377     O      0.574100000000     0.053200000000     0.000000000000     0          
C378     C      0.969960000000     0.052240000000     0.000000000000     0          
H379     H      0.949400000000     0.087800000000     0.000000000000     0          
O380     O      0.425900000000     0.946800000000     0.000000000000     0          
C381     C      0.030040000000     0.947760000000     0.000000000000     0          
H382     H      0.050600000000     0.912200000000     0.000000000000     0          
O383     O      0.053200000000     0.425900000000     0.500000000000     0          
C384     C      0.052240000000     0.030040000000     0.500000000000     0          
H385     H      0.087800000000     0.050600000000     0.500000000000     0          
O386     O      0.946800000000     0.574100000000     0.500000000000     0          
C387     C      0.947760000000     0.969960000000     0.500000000000     0          
H388     H      0.912200000000     0.949400000000     0.500000000000     0          
O389     O      0.500000000000     0.052500000000     0.092200000000     0          
O390     O      0.500000000000     0.947500000000     0.092200000000     0          
O391     O      0.947500000000     0.500000000000     0.592200000000     0          
O392     O      0.052500000000     0.500000000000     0.592200000000     0          
O393     O      0.500000000000     0.052500000000     0.907800000000     0          
O394     O      0.500000000000     0.947500000000     0.907800000000     0          
O395     O      0.052500000000     0.500000000000     0.407800000000     0          
O396     O      0.947500000000     0.500000000000     0.407800000000     0          
C397     C      0.060250000000     0.000000000000     0.000000000000     0          
C398     C      0.123700000000     0.000000000000     0.000000000000     0          
C399     C      0.244000000000     0.000000000000     0.000000000000     0          
C400     C      0.308600000000     0.000000000000     0.000000000000     0          
C401     C      0.939750000000     0.000000000000     0.000000000000     0          
C402     C      0.876300000000     0.000000000000     0.000000000000     0          
C403     C      0.756000000000     0.000000000000     0.000000000000     0          
C404     C      0.691400000000     0.000000000000     0.000000000000     0          
C405     C      0.000000000000     0.060250000000     0.500000000000     0          
C406     C      0.000000000000     0.123700000000     0.500000000000     0          
C407     C      0.000000000000     0.244000000000     0.500000000000     0          
C408     C      0.000000000000     0.308600000000     0.500000000000     0          
C409     C      0.000000000000     0.939750000000     0.500000000000     0          
C410     C      0.000000000000     0.876300000000     0.500000000000     0          
C411     C      0.000000000000     0.756000000000     0.500000000000     0          
C412     C      0.000000000000     0.691400000000     0.500000000000     0          
C413     C      0.500000000000     0.000000000000     0.460200000000     0          
C414     C      0.500000000000     0.000000000000     0.312600000000     0          
C415     C      0.500000000000     0.000000000000     0.233200000000     0          
C416     C      0.000000000000     0.500000000000     0.960200000000     0          
C417     C      0.000000000000     0.500000000000     0.812600000000     0          
C418     C      0.000000000000     0.500000000000     0.733200000000     0          
C419     C      0.500000000000     0.000000000000     0.539800000000     0          
C420     C      0.500000000000     0.000000000000     0.687400000000     0          
C421     C      0.500000000000     0.000000000000     0.766800000000     0          
C422     C      0.000000000000     0.500000000000     0.039800000000     0          
C423     C      0.000000000000     0.500000000000     0.187400000000     0          
C424     C      0.000000000000     0.500000000000     0.266800000000     0          


