data_NEJMOH

_audit_creation_method RASPA-1.0
_audit_creation_date 2020-11-2
_audit_author_name 'Rocio Bueno-Perez'

_cell_length_a    23.05
_cell_length_b    23.05
_cell_length_c    18.8368
_cell_angle_alpha 90
_cell_angle_beta  90
_cell_angle_gamma 90
_cell_volume      10008

_symmetry_cell_setting          triclinic
_symmetry_space_group_name_Hall 'P 1'
_symmetry_space_group_name_H-M  'P 1'
_symmetry_Int_Tables_number     1

_symmetry_equiv_pos_as_xyz 'x,y,z'

loop_
_atom_site_label
_atom_site_type_symbol
_atom_site_fract_x
_atom_site_fract_y
_atom_site_fract_z
_atom_site_charge
F1       F      0.341700000000     0.383100000000     0.187900000000     0          
F2       F      0.280400000000     0.352100000000     0.114300000000     0          
F3       F      0.369100000000     0.349700000000     0.089300000000     0          
O4       O      0.441400000000     0.156340000000     0.072500000000     0          
O5       O      0.392900000000     0.085100000000     0.132600000000     0          
C6       C      0.302100000000     0.261800000000     0.230700000000     0          
C7       C      0.336900000000     0.279500000000     0.175200000000     0          
C8       C      0.371300000000     0.238600000000     0.139100000000     0          
H9       H      0.395600000000     0.250900000000     0.101300000000     0          
C10      C      0.370400000000     0.182000000000     0.157600000000     0          
C11      C      0.336100000000     0.164300000000     0.213300000000     0          
H12      H      0.334500000000     0.124500000000     0.226300000000     0          
C13      C      0.303800000000     0.205300000000     0.250400000000     0          
H14      H      0.282300000000     0.193300000000     0.290900000000     0          
C15      C      0.404300000000     0.137300000000     0.117100000000     0          
C16      C      0.332400000000     0.338800000000     0.143600000000     0          
F17      F      0.658300000000     0.616900000000     0.187900000000     0          
F18      F      0.719600000000     0.647900000000     0.114300000000     0          
F19      F      0.630900000000     0.650300000000     0.089300000000     0          
O20      O      0.558600000000     0.843660000000     0.072500000000     0          
O21      O      0.607100000000     0.914900000000     0.132600000000     0          
C22      C      0.697900000000     0.738200000000     0.230700000000     0          
C23      C      0.663100000000     0.720500000000     0.175200000000     0          
C24      C      0.628700000000     0.761400000000     0.139100000000     0          
H25      H      0.604400000000     0.749100000000     0.101300000000     0          
C26      C      0.629600000000     0.818000000000     0.157600000000     0          
C27      C      0.663900000000     0.835700000000     0.213300000000     0          
H28      H      0.665500000000     0.875500000000     0.226300000000     0          
C29      C      0.696200000000     0.794700000000     0.250400000000     0          
H30      H      0.717700000000     0.806700000000     0.290900000000     0          
C31      C      0.595700000000     0.862700000000     0.117100000000     0          
C32      C      0.667600000000     0.661200000000     0.143600000000     0          
C33      C      0.969770000000     0.958700000000     0.039200000000     0          
H34      H      0.949500000000     0.930300000000     0.066100000000     0          
O35      O      0.843660000000     0.441400000000     0.572500000000     0          
O36      O      0.914900000000     0.392900000000     0.632600000000     0          
C37      C      0.738200000000     0.302100000000     0.730700000000     0          
C38      C      0.720500000000     0.336900000000     0.675200000000     0          
C39      C      0.761400000000     0.371300000000     0.639100000000     0          
H40      H      0.749100000000     0.395600000000     0.601300000000     0          
C41      C      0.818000000000     0.370400000000     0.657600000000     0          
C42      C      0.835700000000     0.336100000000     0.713300000000     0          
H43      H      0.875500000000     0.334500000000     0.726300000000     0          
C44      C      0.794700000000     0.303800000000     0.750400000000     0          
C45      C      0.862700000000     0.404300000000     0.617100000000     0          
H46      H      0.680800000000     0.337700000000     0.661500000000     0          
C47      C      0.818200000000     0.269100000000     0.812000000000     0          
F48      F      0.875400000000     0.275500000000     0.822400000000     0          
F49      F      0.795300000000     0.282200000000     0.874900000000     0          
F50      F      0.812000000000     0.212000000000     0.804900000000     0          
O51      O      0.156340000000     0.558600000000     0.572500000000     0          
O52      O      0.085100000000     0.607100000000     0.632600000000     0          
N53      N      0.082500000000     0.941000000000     0.578300000000     0          
H54      H      0.083100000000     0.902900000000     0.578900000000     0          
H55      H      0.108200000000     0.961000000000     0.602700000000     0          
C56      C      0.261800000000     0.697900000000     0.730700000000     0          
C57      C      0.279500000000     0.663100000000     0.675200000000     0          
C58      C      0.238600000000     0.628700000000     0.639100000000     0          
H59      H      0.250900000000     0.604400000000     0.601300000000     0          
C60      C      0.182000000000     0.629600000000     0.657600000000     0          
C61      C      0.164300000000     0.663900000000     0.713300000000     0          
H62      H      0.124500000000     0.665500000000     0.726300000000     0          
C63      C      0.205300000000     0.696200000000     0.750400000000     0          
C64      C      0.137300000000     0.595700000000     0.617100000000     0          
C65      C      0.041300000000     0.969770000000     0.539200000000     0          
H66      H      0.319200000000     0.662300000000     0.661500000000     0          
C67      C      0.181800000000     0.730900000000     0.812000000000     0          
F68      F      0.124600000000     0.724500000000     0.822400000000     0          
F69      F      0.204700000000     0.717800000000     0.874900000000     0          
F70      F      0.188000000000     0.788000000000     0.804900000000     0          
F71      F      0.658300000000     0.383100000000     0.812100000000     0          
F72      F      0.719600000000     0.352100000000     0.885700000000     0          
F73      F      0.630900000000     0.349700000000     0.910700000000     0          
O74      O      0.558600000000     0.156340000000     0.927500000000     0          
O75      O      0.607100000000     0.085100000000     0.867400000000     0          
C76      C      0.697900000000     0.261800000000     0.769300000000     0          
C77      C      0.663100000000     0.279500000000     0.824800000000     0          
C78      C      0.628700000000     0.238600000000     0.860900000000     0          
H79      H      0.604400000000     0.250900000000     0.898700000000     0          
C80      C      0.629600000000     0.182000000000     0.842400000000     0          
C81      C      0.663900000000     0.164300000000     0.786700000000     0          
H82      H      0.665500000000     0.124500000000     0.773700000000     0          
C83      C      0.696200000000     0.205300000000     0.749600000000     0          
H84      H      0.717700000000     0.193300000000     0.709100000000     0          
C85      C      0.595700000000     0.137300000000     0.882900000000     0          
C86      C      0.667600000000     0.338800000000     0.856400000000     0          
C87      C      0.969770000000     0.041300000000     0.960800000000     0          
H88      H      0.949500000000     0.069700000000     0.933900000000     0          
F89      F      0.341700000000     0.616900000000     0.812100000000     0          
F90      F      0.280400000000     0.647900000000     0.885700000000     0          
F91      F      0.369100000000     0.650300000000     0.910700000000     0          
O92      O      0.441400000000     0.843660000000     0.927500000000     0          
O93      O      0.392900000000     0.914900000000     0.867400000000     0          
C94      C      0.302100000000     0.738200000000     0.769300000000     0          
C95      C      0.336900000000     0.720500000000     0.824800000000     0          
C96      C      0.371300000000     0.761400000000     0.860900000000     0          
H97      H      0.395600000000     0.749100000000     0.898700000000     0          
C98      C      0.370400000000     0.818000000000     0.842400000000     0          
C99      C      0.336100000000     0.835700000000     0.786700000000     0          
H100     H      0.334500000000     0.875500000000     0.773700000000     0          
C101     C      0.303800000000     0.794700000000     0.749600000000     0          
H102     H      0.282300000000     0.806700000000     0.709100000000     0          
C103     C      0.404300000000     0.862700000000     0.882900000000     0          
C104     C      0.332400000000     0.661200000000     0.856400000000     0          
O105     O      0.156340000000     0.441400000000     0.427500000000     0          
O106     O      0.085100000000     0.392900000000     0.367400000000     0          
C107     C      0.261800000000     0.302100000000     0.269300000000     0          
C108     C      0.279500000000     0.336900000000     0.324800000000     0          
C109     C      0.238600000000     0.371300000000     0.360900000000     0          
H110     H      0.250900000000     0.395600000000     0.398700000000     0          
C111     C      0.182000000000     0.370400000000     0.342400000000     0          
C112     C      0.164300000000     0.336100000000     0.286700000000     0          
H113     H      0.124500000000     0.334500000000     0.273700000000     0          
C114     C      0.205300000000     0.303800000000     0.249600000000     0          
C115     C      0.137300000000     0.404300000000     0.382900000000     0          
H116     H      0.319200000000     0.337700000000     0.338500000000     0          
C117     C      0.181800000000     0.269100000000     0.188000000000     0          
F118     F      0.124600000000     0.275500000000     0.177600000000     0          
F119     F      0.204700000000     0.282200000000     0.125100000000     0          
F120     F      0.188000000000     0.212000000000     0.195100000000     0          
O121     O      0.843660000000     0.558600000000     0.427500000000     0          
O122     O      0.914900000000     0.607100000000     0.367400000000     0          
C123     C      0.738200000000     0.697900000000     0.269300000000     0          
C124     C      0.720500000000     0.663100000000     0.324800000000     0          
C125     C      0.761400000000     0.628700000000     0.360900000000     0          
H126     H      0.749100000000     0.604400000000     0.398700000000     0          
C127     C      0.818000000000     0.629600000000     0.342400000000     0          
C128     C      0.835700000000     0.663900000000     0.286700000000     0          
H129     H      0.875500000000     0.665500000000     0.273700000000     0          
C130     C      0.794700000000     0.696200000000     0.249600000000     0          
C131     C      0.862700000000     0.595700000000     0.382900000000     0          
C132     C      0.958700000000     0.969770000000     0.460800000000     0          
H133     H      0.930300000000     0.949500000000     0.433900000000     0          
H134     H      0.680800000000     0.662300000000     0.338500000000     0          
C135     C      0.818200000000     0.730900000000     0.188000000000     0          
F136     F      0.875400000000     0.724500000000     0.177600000000     0          
F137     F      0.795300000000     0.717800000000     0.125100000000     0          
F138     F      0.812000000000     0.788000000000     0.195100000000     0          
O139     O      0.558600000000     0.843660000000     0.927500000000     0          
O140     O      0.607100000000     0.914900000000     0.867400000000     0          
C141     C      0.697900000000     0.738200000000     0.769300000000     0          
C142     C      0.663100000000     0.720500000000     0.824800000000     0          
C143     C      0.628700000000     0.761400000000     0.860900000000     0          
H144     H      0.604400000000     0.749100000000     0.898700000000     0          
C145     C      0.629600000000     0.818000000000     0.842400000000     0          
C146     C      0.663900000000     0.835700000000     0.786700000000     0          
H147     H      0.665500000000     0.875500000000     0.773700000000     0          
C148     C      0.696200000000     0.794700000000     0.749600000000     0          
C149     C      0.595700000000     0.862700000000     0.882900000000     0          
H150     H      0.662300000000     0.680800000000     0.838500000000     0          
C151     C      0.730900000000     0.818200000000     0.688000000000     0          
F152     F      0.724500000000     0.875400000000     0.677600000000     0          
F153     F      0.717800000000     0.795300000000     0.625100000000     0          
F154     F      0.788000000000     0.812000000000     0.695100000000     0          
F155     F      0.341700000000     0.383100000000     0.812100000000     0          
F156     F      0.280400000000     0.352100000000     0.885700000000     0          
F157     F      0.369100000000     0.349700000000     0.910700000000     0          
O158     O      0.441400000000     0.156340000000     0.927500000000     0          
O159     O      0.392900000000     0.085100000000     0.867400000000     0          
N160     N      0.059000000000     0.082500000000     0.921700000000     0          
H161     H      0.097100000000     0.083100000000     0.921100000000     0          
H162     H      0.039000000000     0.108200000000     0.897300000000     0          
C163     C      0.302100000000     0.261800000000     0.769300000000     0          
C164     C      0.336900000000     0.279500000000     0.824800000000     0          
C165     C      0.371300000000     0.238600000000     0.860900000000     0          
H166     H      0.395600000000     0.250900000000     0.898700000000     0          
C167     C      0.370400000000     0.182000000000     0.842400000000     0          
C168     C      0.336100000000     0.164300000000     0.786700000000     0          
H169     H      0.334500000000     0.124500000000     0.773700000000     0          
C170     C      0.303800000000     0.205300000000     0.749600000000     0          
H171     H      0.282300000000     0.193300000000     0.709100000000     0          
C172     C      0.404300000000     0.137300000000     0.882900000000     0          
C173     C      0.332400000000     0.338800000000     0.856400000000     0          
C174     C      0.030230000000     0.041300000000     0.960800000000     0          
F175     F      0.383100000000     0.658300000000     0.312100000000     0          
F176     F      0.352100000000     0.719600000000     0.385700000000     0          
F177     F      0.349700000000     0.630900000000     0.410700000000     0          
O178     O      0.156340000000     0.558600000000     0.427500000000     0          
O179     O      0.085100000000     0.607100000000     0.367400000000     0          
C180     C      0.261800000000     0.697900000000     0.269300000000     0          
C181     C      0.279500000000     0.663100000000     0.324800000000     0          
C182     C      0.238600000000     0.628700000000     0.360900000000     0          
H183     H      0.250900000000     0.604400000000     0.398700000000     0          
C184     C      0.182000000000     0.629600000000     0.342400000000     0          
C185     C      0.164300000000     0.663900000000     0.286700000000     0          
H186     H      0.124500000000     0.665500000000     0.273700000000     0          
C187     C      0.205300000000     0.696200000000     0.249600000000     0          
H188     H      0.193300000000     0.717700000000     0.209100000000     0          
C189     C      0.137300000000     0.595700000000     0.382900000000     0          
C190     C      0.338800000000     0.667600000000     0.356400000000     0          
F191     F      0.616900000000     0.341700000000     0.312100000000     0          
F192     F      0.647900000000     0.280400000000     0.385700000000     0          
F193     F      0.650300000000     0.369100000000     0.410700000000     0          
O194     O      0.843660000000     0.441400000000     0.427500000000     0          
O195     O      0.914900000000     0.392900000000     0.367400000000     0          
C196     C      0.738200000000     0.302100000000     0.269300000000     0          
C197     C      0.720500000000     0.336900000000     0.324800000000     0          
C198     C      0.761400000000     0.371300000000     0.360900000000     0          
H199     H      0.749100000000     0.395600000000     0.398700000000     0          
C200     C      0.818000000000     0.370400000000     0.342400000000     0          
C201     C      0.835700000000     0.336100000000     0.286700000000     0          
H202     H      0.875500000000     0.334500000000     0.273700000000     0          
C203     C      0.794700000000     0.303800000000     0.249600000000     0          
H204     H      0.806700000000     0.282300000000     0.209100000000     0          
C205     C      0.862700000000     0.404300000000     0.382900000000     0          
C206     C      0.661200000000     0.332400000000     0.356400000000     0          
C207     C      0.958700000000     0.030230000000     0.460800000000     0          
H208     H      0.930300000000     0.050500000000     0.433900000000     0          
O209     O      0.441400000000     0.843660000000     0.072500000000     0          
O210     O      0.392900000000     0.914900000000     0.132600000000     0          
C211     C      0.302100000000     0.738200000000     0.230700000000     0          
C212     C      0.336900000000     0.720500000000     0.175200000000     0          
C213     C      0.371300000000     0.761400000000     0.139100000000     0          
H214     H      0.395600000000     0.749100000000     0.101300000000     0          
C215     C      0.370400000000     0.818000000000     0.157600000000     0          
C216     C      0.336100000000     0.835700000000     0.213300000000     0          
H217     H      0.334500000000     0.875500000000     0.226300000000     0          
C218     C      0.303800000000     0.794700000000     0.250400000000     0          
C219     C      0.404300000000     0.862700000000     0.117100000000     0          
C220     C      0.030230000000     0.958700000000     0.039200000000     0          
H221     H      0.050500000000     0.930300000000     0.066100000000     0          
H222     H      0.337700000000     0.680800000000     0.161500000000     0          
C223     C      0.269100000000     0.818200000000     0.312000000000     0          
F224     F      0.275500000000     0.875400000000     0.322400000000     0          
F225     F      0.282200000000     0.795300000000     0.374900000000     0          
F226     F      0.212000000000     0.812000000000     0.304900000000     0          
O227     O      0.558600000000     0.156340000000     0.072500000000     0          
O228     O      0.607100000000     0.085100000000     0.132600000000     0          
C229     C      0.697900000000     0.261800000000     0.230700000000     0          
C230     C      0.663100000000     0.279500000000     0.175200000000     0          
C231     C      0.628700000000     0.238600000000     0.139100000000     0          
H232     H      0.604400000000     0.250900000000     0.101300000000     0          
C233     C      0.629600000000     0.182000000000     0.157600000000     0          
C234     C      0.663900000000     0.164300000000     0.213300000000     0          
H235     H      0.665500000000     0.124500000000     0.226300000000     0          
C236     C      0.696200000000     0.205300000000     0.250400000000     0          
C237     C      0.595700000000     0.137300000000     0.117100000000     0          
H238     H      0.662300000000     0.319200000000     0.161500000000     0          
C239     C      0.730900000000     0.181800000000     0.312000000000     0          
F240     F      0.724500000000     0.124600000000     0.322400000000     0          
F241     F      0.717800000000     0.204700000000     0.374900000000     0          
F242     F      0.788000000000     0.188000000000     0.304900000000     0          
F243     F      0.616900000000     0.658300000000     0.687900000000     0          
F244     F      0.647900000000     0.719600000000     0.614300000000     0          
F245     F      0.650300000000     0.630900000000     0.589300000000     0          
O246     O      0.843660000000     0.558600000000     0.572500000000     0          
O247     O      0.914900000000     0.607100000000     0.632600000000     0          
C248     C      0.738200000000     0.697900000000     0.730700000000     0          
C249     C      0.720500000000     0.663100000000     0.675200000000     0          
C250     C      0.761400000000     0.628700000000     0.639100000000     0          
H251     H      0.749100000000     0.604400000000     0.601300000000     0          
C252     C      0.818000000000     0.629600000000     0.657600000000     0          
C253     C      0.835700000000     0.663900000000     0.713300000000     0          
H254     H      0.875500000000     0.665500000000     0.726300000000     0          
C255     C      0.794700000000     0.696200000000     0.750400000000     0          
H256     H      0.806700000000     0.717700000000     0.790900000000     0          
C257     C      0.862700000000     0.595700000000     0.617100000000     0          
C258     C      0.661200000000     0.667600000000     0.643600000000     0          
O259     O      0.156340000000     0.441400000000     0.572500000000     0          
O260     O      0.085100000000     0.392900000000     0.632600000000     0          
C261     C      0.261800000000     0.302100000000     0.730700000000     0          
C262     C      0.279500000000     0.336900000000     0.675200000000     0          
C263     C      0.238600000000     0.371300000000     0.639100000000     0          
H264     H      0.250900000000     0.395600000000     0.601300000000     0          
C265     C      0.182000000000     0.370400000000     0.657600000000     0          
C266     C      0.164300000000     0.336100000000     0.713300000000     0          
H267     H      0.124500000000     0.334500000000     0.726300000000     0          
C268     C      0.205300000000     0.303800000000     0.750400000000     0          
C269     C      0.137300000000     0.404300000000     0.617100000000     0          
C270     C      0.041300000000     0.030230000000     0.539200000000     0          
H271     H      0.069700000000     0.050500000000     0.566100000000     0          
H272     H      0.319200000000     0.337700000000     0.661500000000     0          
C273     C      0.181800000000     0.269100000000     0.812000000000     0          
F274     F      0.124600000000     0.275500000000     0.822400000000     0          
F275     F      0.204700000000     0.282200000000     0.874900000000     0          
F276     F      0.188000000000     0.212000000000     0.804900000000     0          
Zr277    Zr     0.500000000000     0.107610000000     0.000000000000     0          
Zr278    Zr     0.500000000000     0.892390000000     0.000000000000     0          
Zr279    Zr     0.892390000000     0.500000000000     0.500000000000     0          
Zr280    Zr     0.107610000000     0.500000000000     0.500000000000     0          
Zr281    Zr     0.424290000000     0.000000000000     0.092610000000     0          
O282     O      0.438500000000     0.000000000000     0.205300000000     0          
O283     O      0.331600000000     0.000000000000     0.065100000000     0          
C284     C      0.447580000000     0.000000000000     0.349100000000     0          
H285     H      0.411900000000     0.000000000000     0.324000000000     0          
C286     C      0.447680000000     0.000000000000     0.423100000000     0          
C287     C      0.216100000000     0.000000000000     0.064000000000     0          
H288     H      0.236800000000     0.000000000000     0.107600000000     0          
C289     C      0.155600000000     0.000000000000     0.064000000000     0          
H290     H      0.135000000000     0.000000000000     0.107700000000     0          
H291     H      0.412000000000     0.000000000000     0.448400000000     0          
Zr292    Zr     0.575710000000     0.000000000000     0.092610000000     0          
O293     O      0.561500000000     0.000000000000     0.205300000000     0          
O294     O      0.604500000000     0.000000000000     0.459000000000     0          
O295     O      0.668400000000     0.000000000000     0.065100000000     0          
C296     C      0.552420000000     0.000000000000     0.349100000000     0          
H297     H      0.588100000000     0.000000000000     0.324000000000     0          
C298     C      0.552320000000     0.000000000000     0.423100000000     0          
C299     C      0.783900000000     0.000000000000     0.064000000000     0          
H300     H      0.763200000000     0.000000000000     0.107600000000     0          
C301     C      0.844400000000     0.000000000000     0.064000000000     0          
H302     H      0.865000000000     0.000000000000     0.107700000000     0          
H303     H      0.638300000000     0.000000000000     0.442200000000     0          
Zr304    Zr     0.000000000000     0.424290000000     0.592610000000     0          
O305     O      0.000000000000     0.438500000000     0.705300000000     0          
O306     O      0.000000000000     0.395500000000     0.959000000000     0          
O307     O      0.000000000000     0.331600000000     0.565100000000     0          
C308     C      0.000000000000     0.447580000000     0.849100000000     0          
H309     H      0.000000000000     0.411900000000     0.824000000000     0          
C310     C      0.000000000000     0.447680000000     0.923100000000     0          
C311     C      0.000000000000     0.216100000000     0.564000000000     0          
H312     H      0.000000000000     0.236800000000     0.607600000000     0          
C313     C      0.000000000000     0.155600000000     0.564000000000     0          
H314     H      0.000000000000     0.135000000000     0.607700000000     0          
H315     H      0.000000000000     0.361700000000     0.942200000000     0          
Zr316    Zr     0.000000000000     0.575710000000     0.592610000000     0          
O317     O      0.000000000000     0.561500000000     0.705300000000     0          
O318     O      0.000000000000     0.668400000000     0.565100000000     0          
C319     C      0.000000000000     0.552420000000     0.849100000000     0          
H320     H      0.000000000000     0.588100000000     0.824000000000     0          
C321     C      0.000000000000     0.552320000000     0.923100000000     0          
C322     C      0.000000000000     0.783900000000     0.564000000000     0          
H323     H      0.000000000000     0.763200000000     0.607600000000     0          
C324     C      0.000000000000     0.844400000000     0.564000000000     0          
H325     H      0.000000000000     0.865000000000     0.607700000000     0          
H326     H      0.000000000000     0.588000000000     0.948400000000     0          
Zr327    Zr     0.575710000000     0.000000000000     0.907390000000     0          
O328     O      0.561500000000     0.000000000000     0.794700000000     0          
O329     O      0.668400000000     0.000000000000     0.934900000000     0          
C330     C      0.552420000000     0.000000000000     0.650900000000     0          
H331     H      0.588100000000     0.000000000000     0.676000000000     0          
C332     C      0.552320000000     0.000000000000     0.576900000000     0          
C333     C      0.783900000000     0.000000000000     0.936000000000     0          
H334     H      0.763200000000     0.000000000000     0.892400000000     0          
C335     C      0.844400000000     0.000000000000     0.936000000000     0          
H336     H      0.865000000000     0.000000000000     0.892300000000     0          
H337     H      0.588000000000     0.000000000000     0.551600000000     0          
Zr338    Zr     0.424290000000     0.000000000000     0.907390000000     0          
O339     O      0.438500000000     0.000000000000     0.794700000000     0          
O340     O      0.395500000000     0.000000000000     0.541000000000     0          
O341     O      0.331600000000     0.000000000000     0.934900000000     0          
C342     C      0.447580000000     0.000000000000     0.650900000000     0          
H343     H      0.411900000000     0.000000000000     0.676000000000     0          
C344     C      0.447680000000     0.000000000000     0.576900000000     0          
C345     C      0.216100000000     0.000000000000     0.936000000000     0          
H346     H      0.236800000000     0.000000000000     0.892400000000     0          
C347     C      0.155600000000     0.000000000000     0.936000000000     0          
H348     H      0.135000000000     0.000000000000     0.892300000000     0          
H349     H      0.361700000000     0.000000000000     0.557800000000     0          
Zr350    Zr     0.000000000000     0.424290000000     0.407390000000     0          
O351     O      0.000000000000     0.438500000000     0.294700000000     0          
O352     O      0.000000000000     0.331600000000     0.434900000000     0          
C353     C      0.000000000000     0.447580000000     0.150900000000     0          
H354     H      0.000000000000     0.411900000000     0.176000000000     0          
C355     C      0.000000000000     0.447680000000     0.076900000000     0          
C356     C      0.000000000000     0.216100000000     0.436000000000     0          
H357     H      0.000000000000     0.236800000000     0.392400000000     0          
C358     C      0.000000000000     0.155600000000     0.436000000000     0          
H359     H      0.000000000000     0.135000000000     0.392300000000     0          
H360     H      0.000000000000     0.412000000000     0.051600000000     0          
Zr361    Zr     0.000000000000     0.575710000000     0.407390000000     0          
O362     O      0.000000000000     0.561500000000     0.294700000000     0          
O363     O      0.000000000000     0.604500000000     0.041000000000     0          
O364     O      0.000000000000     0.668400000000     0.434900000000     0          
C365     C      0.000000000000     0.552420000000     0.150900000000     0          
H366     H      0.000000000000     0.588100000000     0.176000000000     0          
C367     C      0.000000000000     0.552320000000     0.076900000000     0          
C368     C      0.000000000000     0.783900000000     0.436000000000     0          
H369     H      0.000000000000     0.763200000000     0.392400000000     0          
C370     C      0.000000000000     0.844400000000     0.436000000000     0          
H371     H      0.000000000000     0.865000000000     0.392300000000     0          
H372     H      0.000000000000     0.638300000000     0.057800000000     0          
O373     O      0.500000000000     0.053000000000     0.093200000000     0          
O374     O      0.500000000000     0.947000000000     0.093200000000     0          
O375     O      0.947000000000     0.500000000000     0.593200000000     0          
O376     O      0.053000000000     0.500000000000     0.593200000000     0          
O377     O      0.500000000000     0.053000000000     0.906800000000     0          
O378     O      0.500000000000     0.947000000000     0.906800000000     0          
O379     O      0.053000000000     0.500000000000     0.406800000000     0          
O380     O      0.947000000000     0.500000000000     0.406800000000     0          
O381     O      0.424800000000     0.053800000000     0.000000000000     0          
O382     O      0.575200000000     0.946200000000     0.000000000000     0          
O383     O      0.946200000000     0.424800000000     0.500000000000     0          
O384     O      0.053800000000     0.575200000000     0.500000000000     0          
O385     O      0.575200000000     0.053800000000     0.000000000000     0          
O386     O      0.424800000000     0.946200000000     0.000000000000     0          
O387     O      0.053800000000     0.424800000000     0.500000000000     0          
O388     O      0.946200000000     0.575200000000     0.500000000000     0          
C389     C      0.500000000000     0.000000000000     0.234400000000     0          
C390     C      0.500000000000     0.000000000000     0.312000000000     0          
C391     C      0.500000000000     0.000000000000     0.460200000000     0          
C392     C      0.000000000000     0.500000000000     0.734400000000     0          
C393     C      0.000000000000     0.500000000000     0.812000000000     0          
C394     C      0.000000000000     0.500000000000     0.960200000000     0          
C395     C      0.500000000000     0.000000000000     0.765600000000     0          
C396     C      0.500000000000     0.000000000000     0.688000000000     0          
C397     C      0.500000000000     0.000000000000     0.539800000000     0          
C398     C      0.000000000000     0.500000000000     0.265600000000     0          
C399     C      0.000000000000     0.500000000000     0.188000000000     0          
C400     C      0.000000000000     0.500000000000     0.039800000000     0          
C401     C      0.310600000000     0.000000000000     0.000000000000     0          
C402     C      0.246100000000     0.000000000000     0.000000000000     0          
C403     C      0.125400000000     0.000000000000     0.000000000000     0          
C404     C      0.060430000000     0.000000000000     0.000000000000     0          
C405     C      0.689400000000     0.000000000000     0.000000000000     0          
C406     C      0.753900000000     0.000000000000     0.000000000000     0          
C407     C      0.874600000000     0.000000000000     0.000000000000     0          
C408     C      0.939570000000     0.000000000000     0.000000000000     0          
C409     C      0.000000000000     0.310600000000     0.500000000000     0          
C410     C      0.000000000000     0.246100000000     0.500000000000     0          
C411     C      0.000000000000     0.125400000000     0.500000000000     0          
C412     C      0.000000000000     0.060430000000     0.500000000000     0          
C413     C      0.000000000000     0.689400000000     0.500000000000     0          
C414     C      0.000000000000     0.753900000000     0.500000000000     0          
C415     C      0.000000000000     0.874600000000     0.500000000000     0          
C416     C      0.000000000000     0.939570000000     0.500000000000     0          


