data_NEJMIB

_audit_creation_method RASPA-1.0
_audit_creation_date 2020-11-2
_audit_author_name 'Rocio Bueno-Perez'

_cell_length_a    23.0978
_cell_length_b    23.0978
_cell_length_c    18.8599
_cell_angle_alpha 90
_cell_angle_beta  90
_cell_angle_gamma 90
_cell_volume      10061.9

_symmetry_cell_setting          triclinic
_symmetry_space_group_name_Hall 'P 1'
_symmetry_space_group_name_H-M  'P 1'
_symmetry_Int_Tables_number     1

_symmetry_equiv_pos_as_xyz 'x,y,z'

loop_
_atom_site_label
_atom_site_type_symbol
_atom_site_fract_x
_atom_site_fract_y
_atom_site_fract_z
_atom_site_charge
F1       F      0.381600000000     0.337500000000     0.187000000000     0          
F2       F      0.348600000000     0.277000000000     0.110000000000     0          
F3       F      0.348800000000     0.368600000000     0.089100000000     0          
O4       O      0.082800000000     0.390900000000     0.134400000000     0          
O5       O      0.156200000000     0.441200000000     0.072100000000     0          
C6       C      0.260600000000     0.301100000000     0.231300000000     0          
C7       C      0.277000000000     0.333900000000     0.173700000000     0          
C8       C      0.237100000000     0.369400000000     0.138100000000     0          
H9       H      0.249500000000     0.393000000000     0.099800000000     0          
C10      C      0.181200000000     0.369900000000     0.158400000000     0          
C11      C      0.163900000000     0.335300000000     0.211300000000     0          
H12      H      0.123700000000     0.331600000000     0.220700000000     0          
C13      C      0.203700000000     0.304100000000     0.253500000000     0          
H14      H      0.191600000000     0.285600000000     0.296000000000     0          
C15      C      0.136000000000     0.402800000000     0.119200000000     0          
C16      C      0.336300000000     0.329100000000     0.141500000000     0          
C17      C      0.046770000000     0.030230000000     0.028380000000     0          
H18      H      0.078800000000     0.050500000000     0.047800000000     0          
F19      F      0.618400000000     0.662500000000     0.187000000000     0          
F20      F      0.651400000000     0.723000000000     0.110000000000     0          
F21      F      0.651200000000     0.631400000000     0.089100000000     0          
O22      O      0.917200000000     0.609100000000     0.134400000000     0          
O23      O      0.843800000000     0.558800000000     0.072100000000     0          
C24      C      0.739400000000     0.698900000000     0.231300000000     0          
C25      C      0.723000000000     0.666100000000     0.173700000000     0          
C26      C      0.762900000000     0.630600000000     0.138100000000     0          
H27      H      0.750500000000     0.607000000000     0.099800000000     0          
C28      C      0.818800000000     0.630100000000     0.158400000000     0          
C29      C      0.836100000000     0.664700000000     0.211300000000     0          
H30      H      0.876300000000     0.668400000000     0.220700000000     0          
C31      C      0.796300000000     0.695900000000     0.253500000000     0          
H32      H      0.808400000000     0.714400000000     0.296000000000     0          
C33      C      0.864000000000     0.597200000000     0.119200000000     0          
C34      C      0.663700000000     0.670900000000     0.141500000000     0          
O35      O      0.609100000000     0.082800000000     0.634400000000     0          
O36      O      0.558800000000     0.156200000000     0.572100000000     0          
C37      C      0.698900000000     0.260600000000     0.731300000000     0          
C38      C      0.666100000000     0.277000000000     0.673700000000     0          
C39      C      0.630600000000     0.237100000000     0.638100000000     0          
H40      H      0.607000000000     0.249500000000     0.599800000000     0          
C41      C      0.630100000000     0.181200000000     0.658400000000     0          
C42      C      0.664700000000     0.163900000000     0.711300000000     0          
H43      H      0.668400000000     0.123700000000     0.720700000000     0          
C44      C      0.695900000000     0.203700000000     0.753500000000     0          
C45      C      0.597200000000     0.136000000000     0.619200000000     0          
F46      F      0.781800000000     0.179200000000     0.823000000000     0          
F47      F      0.711400000000     0.214900000000     0.882300000000     0          
F48      F      0.706700000000     0.128100000000     0.844300000000     0          
H49      H      0.667500000000     0.316000000000     0.657800000000     0          
C50      C      0.722100000000     0.183300000000     0.821700000000     0          
O51      O      0.390900000000     0.917200000000     0.634400000000     0          
O52      O      0.441200000000     0.843800000000     0.572100000000     0          
C53      C      0.301100000000     0.739400000000     0.731300000000     0          
C54      C      0.333900000000     0.723000000000     0.673700000000     0          
C55      C      0.369400000000     0.762900000000     0.638100000000     0          
H56      H      0.393000000000     0.750500000000     0.599800000000     0          
C57      C      0.369900000000     0.818800000000     0.658400000000     0          
C58      C      0.335300000000     0.836100000000     0.711300000000     0          
H59      H      0.331600000000     0.876300000000     0.720700000000     0          
C60      C      0.304100000000     0.796300000000     0.753500000000     0          
C61      C      0.402800000000     0.864000000000     0.619200000000     0          
C62      C      0.030230000000     0.953230000000     0.528380000000     0          
C63      C      0.062550000000     0.902760000000     0.559010000000     0          
H64      H      0.061300000000     0.904700000000     0.610900000000     0          
H65      H      0.044600000000     0.866600000000     0.543100000000     0          
H66      H      0.102900000000     0.904000000000     0.543100000000     0          
F67      F      0.218200000000     0.820800000000     0.823000000000     0          
F68      F      0.288600000000     0.785100000000     0.882300000000     0          
F69      F      0.293300000000     0.871900000000     0.844300000000     0          
H70      H      0.332500000000     0.684000000000     0.657800000000     0          
C71      C      0.277900000000     0.816700000000     0.821700000000     0          
F72      F      0.618400000000     0.337500000000     0.813000000000     0          
F73      F      0.651400000000     0.277000000000     0.890000000000     0          
F74      F      0.651200000000     0.368600000000     0.910900000000     0          
O75      O      0.917200000000     0.390900000000     0.865600000000     0          
O76      O      0.843800000000     0.441200000000     0.927900000000     0          
C77      C      0.739400000000     0.301100000000     0.768700000000     0          
C78      C      0.723000000000     0.333900000000     0.826300000000     0          
C79      C      0.762900000000     0.369400000000     0.861900000000     0          
H80      H      0.750500000000     0.393000000000     0.900200000000     0          
C81      C      0.818800000000     0.369900000000     0.841600000000     0          
C82      C      0.836100000000     0.335300000000     0.788700000000     0          
H83      H      0.876300000000     0.331600000000     0.779300000000     0          
C84      C      0.796300000000     0.304100000000     0.746500000000     0          
H85      H      0.808400000000     0.285600000000     0.704000000000     0          
C86      C      0.864000000000     0.402800000000     0.880800000000     0          
C87      C      0.663700000000     0.329100000000     0.858500000000     0          
C88      C      0.953230000000     0.030230000000     0.971620000000     0          
H89      H      0.921200000000     0.050500000000     0.952200000000     0          
F90      F      0.381600000000     0.662500000000     0.813000000000     0          
F91      F      0.348600000000     0.723000000000     0.890000000000     0          
F92      F      0.348800000000     0.631400000000     0.910900000000     0          
O93      O      0.082800000000     0.609100000000     0.865600000000     0          
O94      O      0.156200000000     0.558800000000     0.927900000000     0          
C95      C      0.260600000000     0.698900000000     0.768700000000     0          
C96      C      0.277000000000     0.666100000000     0.826300000000     0          
C97      C      0.237100000000     0.630600000000     0.861900000000     0          
H98      H      0.249500000000     0.607000000000     0.900200000000     0          
C99      C      0.181200000000     0.630100000000     0.841600000000     0          
C100     C      0.163900000000     0.664700000000     0.788700000000     0          
H101     H      0.123700000000     0.668400000000     0.779300000000     0          
C102     C      0.203700000000     0.695900000000     0.746500000000     0          
H103     H      0.191600000000     0.714400000000     0.704000000000     0          
C104     C      0.136000000000     0.597200000000     0.880800000000     0          
C105     C      0.336300000000     0.670900000000     0.858500000000     0          
O106     O      0.390900000000     0.082800000000     0.365600000000     0          
O107     O      0.441200000000     0.156200000000     0.427900000000     0          
C108     C      0.301100000000     0.260600000000     0.268700000000     0          
C109     C      0.333900000000     0.277000000000     0.326300000000     0          
C110     C      0.369400000000     0.237100000000     0.361900000000     0          
H111     H      0.393000000000     0.249500000000     0.400200000000     0          
C112     C      0.369900000000     0.181200000000     0.341600000000     0          
C113     C      0.335300000000     0.163900000000     0.288700000000     0          
H114     H      0.331600000000     0.123700000000     0.279300000000     0          
C115     C      0.304100000000     0.203700000000     0.246500000000     0          
C116     C      0.402800000000     0.136000000000     0.380800000000     0          
C117     C      0.030230000000     0.046770000000     0.471620000000     0          
F118     F      0.218200000000     0.179200000000     0.177000000000     0          
F119     F      0.288600000000     0.214900000000     0.117700000000     0          
F120     F      0.293300000000     0.128100000000     0.155700000000     0          
H121     H      0.050500000000     0.078800000000     0.452200000000     0          
H122     H      0.332500000000     0.316000000000     0.342200000000     0          
C123     C      0.277900000000     0.183300000000     0.178300000000     0          
F124     F      0.662500000000     0.618400000000     0.313000000000     0          
F125     F      0.723000000000     0.651400000000     0.390000000000     0          
F126     F      0.631400000000     0.651200000000     0.410900000000     0          
O127     O      0.609100000000     0.917200000000     0.365600000000     0          
O128     O      0.558800000000     0.843800000000     0.427900000000     0          
C129     C      0.698900000000     0.739400000000     0.268700000000     0          
C130     C      0.666100000000     0.723000000000     0.326300000000     0          
C131     C      0.630600000000     0.762900000000     0.361900000000     0          
H132     H      0.607000000000     0.750500000000     0.400200000000     0          
C133     C      0.630100000000     0.818800000000     0.341600000000     0          
C134     C      0.664700000000     0.836100000000     0.288700000000     0          
H135     H      0.668400000000     0.876300000000     0.279300000000     0          
C136     C      0.695900000000     0.796300000000     0.246500000000     0          
H137     H      0.714400000000     0.808400000000     0.204000000000     0          
C138     C      0.597200000000     0.864000000000     0.380800000000     0          
C139     C      0.670900000000     0.663700000000     0.358500000000     0          
O140     O      0.917200000000     0.609100000000     0.865600000000     0          
O141     O      0.843800000000     0.558800000000     0.927900000000     0          
C142     C      0.739400000000     0.698900000000     0.768700000000     0          
C143     C      0.723000000000     0.666100000000     0.826300000000     0          
C144     C      0.762900000000     0.630600000000     0.861900000000     0          
H145     H      0.750500000000     0.607000000000     0.900200000000     0          
C146     C      0.818800000000     0.630100000000     0.841600000000     0          
C147     C      0.836100000000     0.664700000000     0.788700000000     0          
H148     H      0.876300000000     0.668400000000     0.779300000000     0          
C149     C      0.796300000000     0.695900000000     0.746500000000     0          
C150     C      0.864000000000     0.597200000000     0.880800000000     0          
C151     C      0.953230000000     0.969770000000     0.971620000000     0          
C152     C      0.902760000000     0.937450000000     0.940990000000     0          
H153     H      0.904700000000     0.938700000000     0.889100000000     0          
H154     H      0.866600000000     0.955400000000     0.956900000000     0          
H155     H      0.904000000000     0.897100000000     0.956900000000     0          
F156     F      0.820800000000     0.781800000000     0.677000000000     0          
F157     F      0.785100000000     0.711400000000     0.617700000000     0          
F158     F      0.871900000000     0.706700000000     0.655700000000     0          
H159     H      0.684000000000     0.667500000000     0.842200000000     0          
C160     C      0.816700000000     0.722100000000     0.678300000000     0          
O161     O      0.082800000000     0.390900000000     0.865600000000     0          
O162     O      0.156200000000     0.441200000000     0.927900000000     0          
C163     C      0.260600000000     0.301100000000     0.768700000000     0          
C164     C      0.277000000000     0.333900000000     0.826300000000     0          
C165     C      0.237100000000     0.369400000000     0.861900000000     0          
H166     H      0.249500000000     0.393000000000     0.900200000000     0          
C167     C      0.181200000000     0.369900000000     0.841600000000     0          
C168     C      0.163900000000     0.335300000000     0.788700000000     0          
H169     H      0.123700000000     0.331600000000     0.779300000000     0          
C170     C      0.203700000000     0.304100000000     0.746500000000     0          
C171     C      0.136000000000     0.402800000000     0.880800000000     0          
F172     F      0.179200000000     0.218200000000     0.677000000000     0          
F173     F      0.214900000000     0.288600000000     0.617700000000     0          
F174     F      0.128100000000     0.293300000000     0.655700000000     0          
H175     H      0.316000000000     0.332500000000     0.842200000000     0          
C176     C      0.183300000000     0.277900000000     0.678300000000     0          
F177     F      0.337500000000     0.618400000000     0.313000000000     0          
F178     F      0.277000000000     0.651400000000     0.390000000000     0          
F179     F      0.368600000000     0.651200000000     0.410900000000     0          
O180     O      0.390900000000     0.917200000000     0.365600000000     0          
O181     O      0.441200000000     0.843800000000     0.427900000000     0          
C182     C      0.301100000000     0.739400000000     0.268700000000     0          
C183     C      0.333900000000     0.723000000000     0.326300000000     0          
C184     C      0.369400000000     0.762900000000     0.361900000000     0          
H185     H      0.393000000000     0.750500000000     0.400200000000     0          
C186     C      0.369900000000     0.818800000000     0.341600000000     0          
C187     C      0.335300000000     0.836100000000     0.288700000000     0          
H188     H      0.331600000000     0.876300000000     0.279300000000     0          
C189     C      0.304100000000     0.796300000000     0.246500000000     0          
H190     H      0.285600000000     0.808400000000     0.204000000000     0          
C191     C      0.402800000000     0.864000000000     0.380800000000     0          
C192     C      0.329100000000     0.663700000000     0.358500000000     0          
F193     F      0.662500000000     0.381600000000     0.313000000000     0          
F194     F      0.723000000000     0.348600000000     0.390000000000     0          
F195     F      0.631400000000     0.348800000000     0.410900000000     0          
O196     O      0.609100000000     0.082800000000     0.365600000000     0          
O197     O      0.558800000000     0.156200000000     0.427900000000     0          
C198     C      0.698900000000     0.260600000000     0.268700000000     0          
C199     C      0.666100000000     0.277000000000     0.326300000000     0          
C200     C      0.630600000000     0.237100000000     0.361900000000     0          
H201     H      0.607000000000     0.249500000000     0.400200000000     0          
C202     C      0.630100000000     0.181200000000     0.341600000000     0          
C203     C      0.664700000000     0.163900000000     0.288700000000     0          
H204     H      0.668400000000     0.123700000000     0.279300000000     0          
C205     C      0.695900000000     0.203700000000     0.246500000000     0          
H206     H      0.714400000000     0.191600000000     0.204000000000     0          
C207     C      0.597200000000     0.136000000000     0.380800000000     0          
C208     C      0.670900000000     0.336300000000     0.358500000000     0          
C209     C      0.969770000000     0.046770000000     0.471620000000     0          
H210     H      0.949500000000     0.078800000000     0.452200000000     0          
O211     O      0.082800000000     0.609100000000     0.134400000000     0          
O212     O      0.156200000000     0.558800000000     0.072100000000     0          
C213     C      0.260600000000     0.698900000000     0.231300000000     0          
C214     C      0.277000000000     0.666100000000     0.173700000000     0          
C215     C      0.237100000000     0.630600000000     0.138100000000     0          
H216     H      0.249500000000     0.607000000000     0.099800000000     0          
C217     C      0.181200000000     0.630100000000     0.158400000000     0          
C218     C      0.163900000000     0.664700000000     0.211300000000     0          
H219     H      0.123700000000     0.668400000000     0.220700000000     0          
C220     C      0.203700000000     0.695900000000     0.253500000000     0          
C221     C      0.136000000000     0.597200000000     0.119200000000     0          
C222     C      0.046770000000     0.969770000000     0.028380000000     0          
F223     F      0.179200000000     0.781800000000     0.323000000000     0          
F224     F      0.214900000000     0.711400000000     0.382300000000     0          
F225     F      0.128100000000     0.706700000000     0.344300000000     0          
H226     H      0.078800000000     0.949500000000     0.047800000000     0          
H227     H      0.316000000000     0.667500000000     0.157800000000     0          
C228     C      0.183300000000     0.722100000000     0.321700000000     0          
O229     O      0.917200000000     0.390900000000     0.134400000000     0          
O230     O      0.843800000000     0.441200000000     0.072100000000     0          
C231     C      0.739400000000     0.301100000000     0.231300000000     0          
C232     C      0.723000000000     0.333900000000     0.173700000000     0          
C233     C      0.762900000000     0.369400000000     0.138100000000     0          
H234     H      0.750500000000     0.393000000000     0.099800000000     0          
C235     C      0.818800000000     0.369900000000     0.158400000000     0          
C236     C      0.836100000000     0.335300000000     0.211300000000     0          
H237     H      0.876300000000     0.331600000000     0.220700000000     0          
C238     C      0.796300000000     0.304100000000     0.253500000000     0          
C239     C      0.864000000000     0.402800000000     0.119200000000     0          
F240     F      0.820800000000     0.218200000000     0.323000000000     0          
F241     F      0.785100000000     0.288600000000     0.382300000000     0          
F242     F      0.871900000000     0.293300000000     0.344300000000     0          
H243     H      0.684000000000     0.332500000000     0.157800000000     0          
C244     C      0.816700000000     0.277900000000     0.321700000000     0          
F245     F      0.662500000000     0.618400000000     0.687000000000     0          
F246     F      0.723000000000     0.651400000000     0.610000000000     0          
F247     F      0.631400000000     0.651200000000     0.589100000000     0          
O248     O      0.609100000000     0.917200000000     0.634400000000     0          
O249     O      0.558800000000     0.843800000000     0.572100000000     0          
C250     C      0.698900000000     0.739400000000     0.731300000000     0          
C251     C      0.666100000000     0.723000000000     0.673700000000     0          
C252     C      0.630600000000     0.762900000000     0.638100000000     0          
H253     H      0.607000000000     0.750500000000     0.599800000000     0          
C254     C      0.630100000000     0.818800000000     0.658400000000     0          
C255     C      0.664700000000     0.836100000000     0.711300000000     0          
H256     H      0.668400000000     0.876300000000     0.720700000000     0          
C257     C      0.695900000000     0.796300000000     0.753500000000     0          
H258     H      0.714400000000     0.808400000000     0.796000000000     0          
C259     C      0.597200000000     0.864000000000     0.619200000000     0          
C260     C      0.670900000000     0.663700000000     0.641500000000     0          
C261     C      0.969770000000     0.953230000000     0.528380000000     0          
H262     H      0.949500000000     0.921200000000     0.547800000000     0          
F263     F      0.337500000000     0.381600000000     0.687000000000     0          
F264     F      0.277000000000     0.348600000000     0.610000000000     0          
F265     F      0.368600000000     0.348800000000     0.589100000000     0          
O266     O      0.390900000000     0.082800000000     0.634400000000     0          
O267     O      0.441200000000     0.156200000000     0.572100000000     0          
C268     C      0.301100000000     0.260600000000     0.731300000000     0          
C269     C      0.333900000000     0.277000000000     0.673700000000     0          
C270     C      0.369400000000     0.237100000000     0.638100000000     0          
H271     H      0.393000000000     0.249500000000     0.599800000000     0          
C272     C      0.369900000000     0.181200000000     0.658400000000     0          
C273     C      0.335300000000     0.163900000000     0.711300000000     0          
H274     H      0.331600000000     0.123700000000     0.720700000000     0          
C275     C      0.304100000000     0.203700000000     0.753500000000     0          
H276     H      0.285600000000     0.191600000000     0.796000000000     0          
C277     C      0.402800000000     0.136000000000     0.619200000000     0          
C278     C      0.329100000000     0.336300000000     0.641500000000     0          
Zr279    Zr     0.108010000000     0.500000000000     0.000000000000     0          
Zr280    Zr     0.891990000000     0.500000000000     0.000000000000     0          
Zr281    Zr     0.500000000000     0.108010000000     0.500000000000     0          
Zr282    Zr     0.500000000000     0.891990000000     0.500000000000     0          
Zr283    Zr     0.000000000000     0.424520000000     0.092390000000     0          
O284     O      0.000000000000     0.447700000000     0.205100000000     0          
O285     O      0.000000000000     0.602500000000     0.459600000000     0          
H286     H      0.000000000000     0.630200000000     0.430700000000     0          
O287     O      0.000000000000     0.331800000000     0.061900000000     0          
C288     C      0.000000000000     0.552250000000     0.349700000000     0          
H289     H      0.000000000000     0.587900000000     0.324600000000     0          
C290     C      0.000000000000     0.552130000000     0.423700000000     0          
C291     C      0.000000000000     0.214900000000     0.064000000000     0          
H292     H      0.000000000000     0.235500000000     0.107600000000     0          
C293     C      0.000000000000     0.154400000000     0.063900000000     0          
H294     H      0.000000000000     0.133800000000     0.107500000000     0          
Zr295    Zr     0.000000000000     0.575480000000     0.092390000000     0          
O296     O      0.000000000000     0.552300000000     0.205100000000     0          
O297     O      0.000000000000     0.668200000000     0.061900000000     0          
C298     C      0.000000000000     0.447750000000     0.349700000000     0          
H299     H      0.000000000000     0.412100000000     0.324600000000     0          
C300     C      0.000000000000     0.447870000000     0.423700000000     0          
C301     C      0.000000000000     0.785100000000     0.064000000000     0          
H302     H      0.000000000000     0.764500000000     0.107600000000     0          
C303     C      0.000000000000     0.845600000000     0.063900000000     0          
H304     H      0.000000000000     0.866200000000     0.107500000000     0          
H305     H      0.000000000000     0.412300000000     0.449000000000     0          
Zr306    Zr     0.575480000000     0.000000000000     0.592390000000     0          
O307     O      0.552300000000     0.000000000000     0.705100000000     0          
O308     O      0.668200000000     0.000000000000     0.561900000000     0          
C309     C      0.447750000000     0.000000000000     0.849700000000     0          
H310     H      0.412100000000     0.000000000000     0.824600000000     0          
C311     C      0.447870000000     0.000000000000     0.923700000000     0          
C312     C      0.785100000000     0.000000000000     0.564000000000     0          
H313     H      0.764500000000     0.000000000000     0.607600000000     0          
C314     C      0.845600000000     0.000000000000     0.563900000000     0          
H315     H      0.866200000000     0.000000000000     0.607500000000     0          
H316     H      0.412300000000     0.000000000000     0.949000000000     0          
Zr317    Zr     0.424520000000     0.000000000000     0.592390000000     0          
O318     O      0.447700000000     0.000000000000     0.705100000000     0          
O319     O      0.602500000000     0.000000000000     0.959600000000     0          
H320     H      0.630200000000     0.000000000000     0.930700000000     0          
O321     O      0.331800000000     0.000000000000     0.561900000000     0          
C322     C      0.552250000000     0.000000000000     0.849700000000     0          
H323     H      0.587900000000     0.000000000000     0.824600000000     0          
C324     C      0.552130000000     0.000000000000     0.923700000000     0          
C325     C      0.214900000000     0.000000000000     0.564000000000     0          
H326     H      0.235500000000     0.000000000000     0.607600000000     0          
C327     C      0.154400000000     0.000000000000     0.563900000000     0          
H328     H      0.133800000000     0.000000000000     0.607500000000     0          
Zr329    Zr     0.000000000000     0.424520000000     0.907610000000     0          
O330     O      0.000000000000     0.447700000000     0.794900000000     0          
O331     O      0.000000000000     0.331800000000     0.938100000000     0          
C332     C      0.000000000000     0.552250000000     0.650300000000     0          
H333     H      0.000000000000     0.587900000000     0.675400000000     0          
C334     C      0.000000000000     0.552130000000     0.576300000000     0          
C335     C      0.000000000000     0.214900000000     0.936000000000     0          
H336     H      0.000000000000     0.235500000000     0.892400000000     0          
C337     C      0.000000000000     0.154400000000     0.936100000000     0          
H338     H      0.000000000000     0.133800000000     0.892500000000     0          
H339     H      0.000000000000     0.587700000000     0.551000000000     0          
Zr340    Zr     0.000000000000     0.575480000000     0.907610000000     0          
O341     O      0.000000000000     0.552300000000     0.794900000000     0          
O342     O      0.000000000000     0.397500000000     0.540400000000     0          
H343     H      0.000000000000     0.369800000000     0.569300000000     0          
O344     O      0.000000000000     0.668200000000     0.938100000000     0          
C345     C      0.000000000000     0.447750000000     0.650300000000     0          
H346     H      0.000000000000     0.412100000000     0.675400000000     0          
C347     C      0.000000000000     0.447870000000     0.576300000000     0          
C348     C      0.000000000000     0.785100000000     0.936000000000     0          
H349     H      0.000000000000     0.764500000000     0.892400000000     0          
C350     C      0.000000000000     0.845600000000     0.936100000000     0          
H351     H      0.000000000000     0.866200000000     0.892500000000     0          
Zr352    Zr     0.424520000000     0.000000000000     0.407610000000     0          
O353     O      0.447700000000     0.000000000000     0.294900000000     0          
O354     O      0.331800000000     0.000000000000     0.438100000000     0          
C355     C      0.552250000000     0.000000000000     0.150300000000     0          
H356     H      0.587900000000     0.000000000000     0.175400000000     0          
C357     C      0.552130000000     0.000000000000     0.076300000000     0          
C358     C      0.214900000000     0.000000000000     0.436000000000     0          
H359     H      0.235500000000     0.000000000000     0.392400000000     0          
C360     C      0.154400000000     0.000000000000     0.436100000000     0          
H361     H      0.133800000000     0.000000000000     0.392500000000     0          
H362     H      0.587700000000     0.000000000000     0.051000000000     0          
Zr363    Zr     0.575480000000     0.000000000000     0.407610000000     0          
O364     O      0.552300000000     0.000000000000     0.294900000000     0          
O365     O      0.397500000000     0.000000000000     0.040400000000     0          
H366     H      0.369800000000     0.000000000000     0.069300000000     0          
O367     O      0.668200000000     0.000000000000     0.438100000000     0          
C368     C      0.447750000000     0.000000000000     0.150300000000     0          
H369     H      0.412100000000     0.000000000000     0.175400000000     0          
C370     C      0.447870000000     0.000000000000     0.076300000000     0          
C371     C      0.785100000000     0.000000000000     0.436000000000     0          
H372     H      0.764500000000     0.000000000000     0.392400000000     0          
C373     C      0.845600000000     0.000000000000     0.436100000000     0          
H374     H      0.866200000000     0.000000000000     0.392500000000     0          
O375     O      0.054200000000     0.425100000000     0.000000000000     0          
O376     O      0.945800000000     0.574900000000     0.000000000000     0          
O377     O      0.574900000000     0.054200000000     0.500000000000     0          
O378     O      0.425100000000     0.945800000000     0.500000000000     0          
O379     O      0.945800000000     0.425100000000     0.000000000000     0          
O380     O      0.054200000000     0.574900000000     0.000000000000     0          
O381     O      0.425100000000     0.054200000000     0.500000000000     0          
O382     O      0.574900000000     0.945800000000     0.500000000000     0          
O383     O      0.053800000000     0.500000000000     0.092700000000     0          
O384     O      0.946200000000     0.500000000000     0.092700000000     0          
O385     O      0.500000000000     0.053800000000     0.592700000000     0          
O386     O      0.500000000000     0.946200000000     0.592700000000     0          
O387     O      0.946200000000     0.500000000000     0.907300000000     0          
O388     O      0.053800000000     0.500000000000     0.907300000000     0          
O389     O      0.500000000000     0.053800000000     0.407300000000     0          
O390     O      0.500000000000     0.946200000000     0.407300000000     0          
C391     C      0.000000000000     0.500000000000     0.232200000000     0          
C392     C      0.000000000000     0.500000000000     0.312800000000     0          
C393     C      0.000000000000     0.500000000000     0.460500000000     0          
C394     C      0.500000000000     0.000000000000     0.732200000000     0          
C395     C      0.500000000000     0.000000000000     0.812800000000     0          
C396     C      0.500000000000     0.000000000000     0.960500000000     0          
C397     C      0.000000000000     0.500000000000     0.767800000000     0          
C398     C      0.000000000000     0.500000000000     0.687200000000     0          
C399     C      0.000000000000     0.500000000000     0.539500000000     0          
C400     C      0.500000000000     0.000000000000     0.267800000000     0          
C401     C      0.500000000000     0.000000000000     0.187200000000     0          
C402     C      0.500000000000     0.000000000000     0.039500000000     0          
C403     C      0.000000000000     0.309800000000     0.000000000000     0          
C404     C      0.000000000000     0.245000000000     0.000000000000     0          
C405     C      0.000000000000     0.124600000000     0.000000000000     0          
C406     C      0.000000000000     0.060230000000     0.000000000000     0          
C407     C      0.000000000000     0.690200000000     0.000000000000     0          
C408     C      0.000000000000     0.755000000000     0.000000000000     0          
C409     C      0.000000000000     0.875400000000     0.000000000000     0          
C410     C      0.000000000000     0.939770000000     0.000000000000     0          
C411     C      0.690200000000     0.000000000000     0.500000000000     0          
C412     C      0.755000000000     0.000000000000     0.500000000000     0          
C413     C      0.875400000000     0.000000000000     0.500000000000     0          
C414     C      0.939770000000     0.000000000000     0.500000000000     0          
C415     C      0.309800000000     0.000000000000     0.500000000000     0          
C416     C      0.245000000000     0.000000000000     0.500000000000     0          
C417     C      0.124600000000     0.000000000000     0.500000000000     0          
C418     C      0.060230000000     0.000000000000     0.500000000000     0          


