data_NEJMAT

_audit_creation_method RASPA-1.0
_audit_creation_date 2020-11-2
_audit_author_name 'Rocio Bueno-Perez'

_cell_length_a    23.1129
_cell_length_b    23.1129
_cell_length_c    18.8598
_cell_angle_alpha 90
_cell_angle_beta  90
_cell_angle_gamma 90
_cell_volume      10075

_symmetry_cell_setting          triclinic
_symmetry_space_group_name_Hall 'P 1'
_symmetry_space_group_name_H-M  'P 1'
_symmetry_Int_Tables_number     1

_symmetry_equiv_pos_as_xyz 'x,y,z'

loop_
_atom_site_label
_atom_site_type_symbol
_atom_site_fract_x
_atom_site_fract_y
_atom_site_fract_z
_atom_site_charge
F1       F      0.119600000000     0.161300000000     0.187700000000     0          
F2       F      0.150000000000     0.220500000000     0.110100000000     0          
F3       F      0.150100000000     0.129700000000     0.088800000000     0          
O4       O      0.343540000000     0.058640000000     0.071700000000     0          
O5       O      0.417100000000     0.109900000000     0.134900000000     0          
C6       C      0.239800000000     0.198500000000     0.232100000000     0          
C7       C      0.223900000000     0.165300000000     0.172600000000     0          
C8       C      0.263000000000     0.131300000000     0.137500000000     0          
H9       H      0.250500000000     0.108000000000     0.098900000000     0          
C10      C      0.319000000000     0.130500000000     0.157100000000     0          
C11      C      0.334700000000     0.163800000000     0.214700000000     0          
H12      H      0.374400000000     0.165400000000     0.227400000000     0          
C13      C      0.295200000000     0.195300000000     0.255200000000     0          
H14      H      0.306900000000     0.213900000000     0.297800000000     0          
C15      C      0.364000000000     0.097100000000     0.118400000000     0          
C16      C      0.164500000000     0.167200000000     0.140300000000     0          
H17      H      0.369700000000     0.450800000000     0.957600000000     0          
C18      C      0.478700000000     0.952400000000     0.422600000000     0          
C19      C      0.478700000000     0.952500000000     0.348500000000     0          
H20      H      0.464100000000     0.919800000000     0.323400000000     0          
C21      C      0.455300000000     0.899900000000     0.461000000000     0          
F22      F      0.437700000000     0.860900000000     0.412600000000     0          
F23      F      0.880400000000     0.838700000000     0.187700000000     0          
F24      F      0.850000000000     0.779500000000     0.110100000000     0          
F25      F      0.849900000000     0.870300000000     0.088800000000     0          
O26      O      0.656460000000     0.941360000000     0.071700000000     0          
O27      O      0.582900000000     0.890100000000     0.134900000000     0          
C28      C      0.760200000000     0.801500000000     0.232100000000     0          
C29      C      0.776100000000     0.834700000000     0.172600000000     0          
C30      C      0.737000000000     0.868700000000     0.137500000000     0          
H31      H      0.749500000000     0.892000000000     0.098900000000     0          
C32      C      0.681000000000     0.869500000000     0.157100000000     0          
C33      C      0.665300000000     0.836200000000     0.214700000000     0          
H34      H      0.625600000000     0.834600000000     0.227400000000     0          
C35      C      0.704800000000     0.804700000000     0.255200000000     0          
H36      H      0.693100000000     0.786100000000     0.297800000000     0          
C37      C      0.636000000000     0.902900000000     0.118400000000     0          
C38      C      0.835500000000     0.832800000000     0.140300000000     0          
C39      C      0.521300000000     0.047600000000     0.422600000000     0          
C40      C      0.521300000000     0.047500000000     0.348500000000     0          
H41      H      0.535900000000     0.080200000000     0.323400000000     0          
H42      H      0.535900000000     0.080100000000     0.447400000000     0          
F43      F      0.838700000000     0.119600000000     0.687700000000     0          
F44      F      0.779500000000     0.150000000000     0.610100000000     0          
F45      F      0.870300000000     0.150100000000     0.588800000000     0          
O46      O      0.941360000000     0.343540000000     0.571700000000     0          
O47      O      0.890100000000     0.417100000000     0.634900000000     0          
C48      C      0.801500000000     0.239800000000     0.732100000000     0          
C49      C      0.834700000000     0.223900000000     0.672600000000     0          
C50      C      0.868700000000     0.263000000000     0.637500000000     0          
H51      H      0.892000000000     0.250500000000     0.598900000000     0          
C52      C      0.869500000000     0.319000000000     0.657100000000     0          
C53      C      0.836200000000     0.334700000000     0.714700000000     0          
H54      H      0.834600000000     0.374400000000     0.727400000000     0          
C55      C      0.804700000000     0.295200000000     0.755200000000     0          
H56      H      0.786100000000     0.306900000000     0.797800000000     0          
C57      C      0.902900000000     0.364000000000     0.618400000000     0          
C58      C      0.832800000000     0.164500000000     0.640300000000     0          
C59      C      0.047600000000     0.478700000000     0.922600000000     0          
C60      C      0.047500000000     0.478700000000     0.848500000000     0          
H61      H      0.080200000000     0.464100000000     0.823400000000     0          
C62      C      0.100100000000     0.455300000000     0.961000000000     0          
F63      F      0.139100000000     0.437700000000     0.912600000000     0          
F64      F      0.161300000000     0.880400000000     0.687700000000     0          
F65      F      0.220500000000     0.850000000000     0.610100000000     0          
F66      F      0.129700000000     0.849900000000     0.588800000000     0          
O67      O      0.058640000000     0.656460000000     0.571700000000     0          
O68      O      0.109900000000     0.582900000000     0.634900000000     0          
C69      C      0.198500000000     0.760200000000     0.732100000000     0          
C70      C      0.165300000000     0.776100000000     0.672600000000     0          
C71      C      0.131300000000     0.737000000000     0.637500000000     0          
H72      H      0.108000000000     0.749500000000     0.598900000000     0          
C73      C      0.130500000000     0.681000000000     0.657100000000     0          
C74      C      0.163800000000     0.665300000000     0.714700000000     0          
H75      H      0.165400000000     0.625600000000     0.727400000000     0          
C76      C      0.195300000000     0.704800000000     0.755200000000     0          
H77      H      0.213900000000     0.693100000000     0.797800000000     0          
C78      C      0.097100000000     0.636000000000     0.618400000000     0          
C79      C      0.167200000000     0.835500000000     0.640300000000     0          
C80      C      0.952400000000     0.521300000000     0.922600000000     0          
C81      C      0.952500000000     0.521300000000     0.848500000000     0          
H82      H      0.919800000000     0.535900000000     0.823400000000     0          
H83      H      0.919900000000     0.535900000000     0.947400000000     0          
O84      O      0.656460000000     0.058640000000     0.928300000000     0          
O85      O      0.582900000000     0.109900000000     0.865100000000     0          
C86      C      0.760200000000     0.198500000000     0.767900000000     0          
C87      C      0.776100000000     0.165300000000     0.827400000000     0          
C88      C      0.737000000000     0.131300000000     0.862500000000     0          
H89      H      0.749500000000     0.108000000000     0.901100000000     0          
C90      C      0.681000000000     0.130500000000     0.842900000000     0          
C91      C      0.665300000000     0.163800000000     0.785300000000     0          
H92      H      0.625600000000     0.165400000000     0.772600000000     0          
C93      C      0.704800000000     0.195300000000     0.744800000000     0          
C94      C      0.636000000000     0.097100000000     0.881600000000     0          
C95      C      0.521300000000     0.952400000000     0.577400000000     0          
C96      C      0.521300000000     0.952500000000     0.651500000000     0          
H97      H      0.535900000000     0.919800000000     0.676600000000     0          
F98      F      0.669800000000     0.274400000000     0.667400000000     0          
F99      F      0.713600000000     0.207500000000     0.614500000000     0          
F100     F      0.628400000000     0.193900000000     0.651800000000     0          
H101     H      0.815000000000     0.166600000000     0.843600000000     0          
C102     C      0.680800000000     0.215700000000     0.674900000000     0          
H103     H      0.535900000000     0.919900000000     0.552600000000     0          
O104     O      0.343540000000     0.941360000000     0.928300000000     0          
O105     O      0.417100000000     0.890100000000     0.865100000000     0          
C106     C      0.239800000000     0.801500000000     0.767900000000     0          
C107     C      0.223900000000     0.834700000000     0.827400000000     0          
C108     C      0.263000000000     0.868700000000     0.862500000000     0          
H109     H      0.250500000000     0.892000000000     0.901100000000     0          
C110     C      0.319000000000     0.869500000000     0.842900000000     0          
C111     C      0.334700000000     0.836200000000     0.785300000000     0          
H112     H      0.374400000000     0.834600000000     0.772600000000     0          
C113     C      0.295200000000     0.804700000000     0.744800000000     0          
C114     C      0.364000000000     0.902900000000     0.881600000000     0          
C115     C      0.478700000000     0.047600000000     0.577400000000     0          
C116     C      0.478700000000     0.047500000000     0.651500000000     0          
H117     H      0.464100000000     0.080200000000     0.676600000000     0          
C118     C      0.455300000000     0.100100000000     0.539000000000     0          
F119     F      0.330200000000     0.725600000000     0.667400000000     0          
F120     F      0.286400000000     0.792500000000     0.614500000000     0          
F121     F      0.371600000000     0.806100000000     0.651800000000     0          
H122     H      0.185000000000     0.833400000000     0.843600000000     0          
C123     C      0.319200000000     0.784300000000     0.674900000000     0          
F124     F      0.437700000000     0.139100000000     0.587400000000     0          
F125     F      0.161300000000     0.119600000000     0.312300000000     0          
F126     F      0.220500000000     0.150000000000     0.389900000000     0          
F127     F      0.129700000000     0.150100000000     0.411200000000     0          
O128     O      0.058640000000     0.343540000000     0.428300000000     0          
O129     O      0.109900000000     0.417100000000     0.365100000000     0          
C130     C      0.198500000000     0.239800000000     0.267900000000     0          
C131     C      0.165300000000     0.223900000000     0.327400000000     0          
C132     C      0.131300000000     0.263000000000     0.362500000000     0          
H133     H      0.108000000000     0.250500000000     0.401100000000     0          
C134     C      0.130500000000     0.319000000000     0.342900000000     0          
C135     C      0.163800000000     0.334700000000     0.285300000000     0          
H136     H      0.165400000000     0.374400000000     0.272600000000     0          
C137     C      0.195300000000     0.295200000000     0.244800000000     0          
H138     H      0.213900000000     0.306900000000     0.202200000000     0          
C139     C      0.097100000000     0.364000000000     0.381600000000     0          
C140     C      0.167200000000     0.164500000000     0.359700000000     0          
C141     C      0.952400000000     0.478700000000     0.077400000000     0          
C142     C      0.952500000000     0.478700000000     0.151500000000     0          
H143     H      0.919800000000     0.464100000000     0.176600000000     0          
C144     C      0.899900000000     0.455300000000     0.039000000000     0          
F145     F      0.860900000000     0.437700000000     0.087400000000     0          
O146     O      0.941360000000     0.656460000000     0.428300000000     0          
O147     O      0.890100000000     0.582900000000     0.365100000000     0          
C148     C      0.801500000000     0.760200000000     0.267900000000     0          
C149     C      0.834700000000     0.776100000000     0.327400000000     0          
C150     C      0.868700000000     0.737000000000     0.362500000000     0          
H151     H      0.892000000000     0.749500000000     0.401100000000     0          
C152     C      0.869500000000     0.681000000000     0.342900000000     0          
C153     C      0.836200000000     0.665300000000     0.285300000000     0          
H154     H      0.834600000000     0.625600000000     0.272600000000     0          
C155     C      0.804700000000     0.704800000000     0.244800000000     0          
C156     C      0.902900000000     0.636000000000     0.381600000000     0          
H157     H      0.549200000000     0.630300000000     0.542400000000     0          
C158     C      0.047600000000     0.521300000000     0.077400000000     0          
C159     C      0.047500000000     0.521300000000     0.151500000000     0          
H160     H      0.080200000000     0.535900000000     0.176600000000     0          
F161     F      0.725600000000     0.669800000000     0.167400000000     0          
F162     F      0.792500000000     0.713600000000     0.114500000000     0          
F163     F      0.806100000000     0.628400000000     0.151800000000     0          
H164     H      0.833400000000     0.815000000000     0.343600000000     0          
C165     C      0.784300000000     0.680800000000     0.174900000000     0          
H166     H      0.080100000000     0.535900000000     0.052600000000     0          
O167     O      0.656460000000     0.941360000000     0.928300000000     0          
O168     O      0.582900000000     0.890100000000     0.865100000000     0          
C169     C      0.760200000000     0.801500000000     0.767900000000     0          
C170     C      0.776100000000     0.834700000000     0.827400000000     0          
C171     C      0.737000000000     0.868700000000     0.862500000000     0          
H172     H      0.749500000000     0.892000000000     0.901100000000     0          
C173     C      0.681000000000     0.869500000000     0.842900000000     0          
C174     C      0.665300000000     0.836200000000     0.785300000000     0          
H175     H      0.625600000000     0.834600000000     0.772600000000     0          
C176     C      0.704800000000     0.804700000000     0.744800000000     0          
C177     C      0.636000000000     0.902900000000     0.881600000000     0          
F178     F      0.669800000000     0.725600000000     0.667400000000     0          
F179     F      0.713600000000     0.792500000000     0.614500000000     0          
F180     F      0.628400000000     0.806100000000     0.651800000000     0          
H181     H      0.815000000000     0.833400000000     0.843600000000     0          
C182     C      0.680800000000     0.784300000000     0.674900000000     0          
O183     O      0.343540000000     0.058640000000     0.928300000000     0          
O184     O      0.417100000000     0.109900000000     0.865100000000     0          
C185     C      0.239800000000     0.198500000000     0.767900000000     0          
C186     C      0.223900000000     0.165300000000     0.827400000000     0          
C187     C      0.263000000000     0.131300000000     0.862500000000     0          
H188     H      0.250500000000     0.108000000000     0.901100000000     0          
C189     C      0.319000000000     0.130500000000     0.842900000000     0          
C190     C      0.334700000000     0.163800000000     0.785300000000     0          
H191     H      0.374400000000     0.165400000000     0.772600000000     0          
C192     C      0.295200000000     0.195300000000     0.744800000000     0          
C193     C      0.364000000000     0.097100000000     0.881600000000     0          
H194     H      0.369700000000     0.450800000000     0.042400000000     0          
F195     F      0.330200000000     0.274400000000     0.667400000000     0          
F196     F      0.286400000000     0.207500000000     0.614500000000     0          
F197     F      0.371600000000     0.193900000000     0.651800000000     0          
H198     H      0.185000000000     0.166600000000     0.843600000000     0          
C199     C      0.319200000000     0.215700000000     0.674900000000     0          
F200     F      0.161300000000     0.880400000000     0.312300000000     0          
F201     F      0.220500000000     0.850000000000     0.389900000000     0          
F202     F      0.129700000000     0.849900000000     0.411200000000     0          
O203     O      0.058640000000     0.656460000000     0.428300000000     0          
O204     O      0.109900000000     0.582900000000     0.365100000000     0          
C205     C      0.198500000000     0.760200000000     0.267900000000     0          
C206     C      0.165300000000     0.776100000000     0.327400000000     0          
C207     C      0.131300000000     0.737000000000     0.362500000000     0          
H208     H      0.108000000000     0.749500000000     0.401100000000     0          
C209     C      0.130500000000     0.681000000000     0.342900000000     0          
C210     C      0.163800000000     0.665300000000     0.285300000000     0          
H211     H      0.165400000000     0.625600000000     0.272600000000     0          
C212     C      0.195300000000     0.704800000000     0.244800000000     0          
H213     H      0.213900000000     0.693100000000     0.202200000000     0          
C214     C      0.097100000000     0.636000000000     0.381600000000     0          
C215     C      0.167200000000     0.835500000000     0.359700000000     0          
F216     F      0.838700000000     0.119600000000     0.312300000000     0          
F217     F      0.779500000000     0.150000000000     0.389900000000     0          
F218     F      0.870300000000     0.150100000000     0.411200000000     0          
O219     O      0.941360000000     0.343540000000     0.428300000000     0          
O220     O      0.890100000000     0.417100000000     0.365100000000     0          
C221     C      0.801500000000     0.239800000000     0.267900000000     0          
C222     C      0.834700000000     0.223900000000     0.327400000000     0          
C223     C      0.868700000000     0.263000000000     0.362500000000     0          
H224     H      0.892000000000     0.250500000000     0.401100000000     0          
C225     C      0.869500000000     0.319000000000     0.342900000000     0          
C226     C      0.836200000000     0.334700000000     0.285300000000     0          
H227     H      0.834600000000     0.374400000000     0.272600000000     0          
C228     C      0.804700000000     0.295200000000     0.244800000000     0          
H229     H      0.786100000000     0.306900000000     0.202200000000     0          
C230     C      0.902900000000     0.364000000000     0.381600000000     0          
C231     C      0.832800000000     0.164500000000     0.359700000000     0          
F232     F      0.119600000000     0.838700000000     0.187700000000     0          
F233     F      0.150000000000     0.779500000000     0.110100000000     0          
F234     F      0.150100000000     0.870300000000     0.088800000000     0          
O235     O      0.343540000000     0.941360000000     0.071700000000     0          
O236     O      0.417100000000     0.890100000000     0.134900000000     0          
C237     C      0.239800000000     0.801500000000     0.232100000000     0          
C238     C      0.223900000000     0.834700000000     0.172600000000     0          
C239     C      0.263000000000     0.868700000000     0.137500000000     0          
H240     H      0.250500000000     0.892000000000     0.098900000000     0          
C241     C      0.319000000000     0.869500000000     0.157100000000     0          
C242     C      0.334700000000     0.836200000000     0.214700000000     0          
H243     H      0.374400000000     0.834600000000     0.227400000000     0          
C244     C      0.295200000000     0.804700000000     0.255200000000     0          
H245     H      0.306900000000     0.786100000000     0.297800000000     0          
C246     C      0.364000000000     0.902900000000     0.118400000000     0          
C247     C      0.164500000000     0.832800000000     0.140300000000     0          
F248     F      0.880400000000     0.161300000000     0.187700000000     0          
F249     F      0.850000000000     0.220500000000     0.110100000000     0          
F250     F      0.849900000000     0.129700000000     0.088800000000     0          
O251     O      0.656460000000     0.058640000000     0.071700000000     0          
O252     O      0.582900000000     0.109900000000     0.134900000000     0          
C253     C      0.760200000000     0.198500000000     0.232100000000     0          
C254     C      0.776100000000     0.165300000000     0.172600000000     0          
C255     C      0.737000000000     0.131300000000     0.137500000000     0          
H256     H      0.749500000000     0.108000000000     0.098900000000     0          
C257     C      0.681000000000     0.130500000000     0.157100000000     0          
C258     C      0.665300000000     0.163800000000     0.214700000000     0          
H259     H      0.625600000000     0.165400000000     0.227400000000     0          
C260     C      0.704800000000     0.195300000000     0.255200000000     0          
H261     H      0.693100000000     0.213900000000     0.297800000000     0          
C262     C      0.636000000000     0.097100000000     0.118400000000     0          
C263     C      0.835500000000     0.167200000000     0.140300000000     0          
O264     O      0.941360000000     0.656460000000     0.571700000000     0          
O265     O      0.890100000000     0.582900000000     0.634900000000     0          
C266     C      0.801500000000     0.760200000000     0.732100000000     0          
C267     C      0.834700000000     0.776100000000     0.672600000000     0          
C268     C      0.868700000000     0.737000000000     0.637500000000     0          
H269     H      0.892000000000     0.749500000000     0.598900000000     0          
C270     C      0.869500000000     0.681000000000     0.657100000000     0          
C271     C      0.836200000000     0.665300000000     0.714700000000     0          
H272     H      0.834600000000     0.625600000000     0.727400000000     0          
C273     C      0.804700000000     0.704800000000     0.755200000000     0          
C274     C      0.902900000000     0.636000000000     0.618400000000     0          
H275     H      0.549200000000     0.630300000000     0.457600000000     0          
F276     F      0.725600000000     0.669800000000     0.832600000000     0          
F277     F      0.792500000000     0.713600000000     0.885500000000     0          
F278     F      0.806100000000     0.628400000000     0.848200000000     0          
H279     H      0.833400000000     0.815000000000     0.656400000000     0          
C280     C      0.784300000000     0.680800000000     0.825100000000     0          
F281     F      0.161300000000     0.119600000000     0.687700000000     0          
F282     F      0.220500000000     0.150000000000     0.610100000000     0          
F283     F      0.129700000000     0.150100000000     0.588800000000     0          
O284     O      0.058640000000     0.343540000000     0.571700000000     0          
O285     O      0.109900000000     0.417100000000     0.634900000000     0          
C286     C      0.198500000000     0.239800000000     0.732100000000     0          
C287     C      0.165300000000     0.223900000000     0.672600000000     0          
C288     C      0.131300000000     0.263000000000     0.637500000000     0          
H289     H      0.108000000000     0.250500000000     0.598900000000     0          
C290     C      0.130500000000     0.319000000000     0.657100000000     0          
C291     C      0.163800000000     0.334700000000     0.714700000000     0          
H292     H      0.165400000000     0.374400000000     0.727400000000     0          
C293     C      0.195300000000     0.295200000000     0.755200000000     0          
H294     H      0.213900000000     0.306900000000     0.797800000000     0          
C295     C      0.097100000000     0.364000000000     0.618400000000     0          
C296     C      0.167200000000     0.164500000000     0.640300000000     0          
Zr297    Zr     0.392100000000     0.000000000000     0.000000000000     0          
Zr298    Zr     0.607900000000     0.000000000000     0.000000000000     0          
Zr299    Zr     0.000000000000     0.392100000000     0.500000000000     0          
Zr300    Zr     0.000000000000     0.607900000000     0.500000000000     0          
Zr301    Zr     0.500000000000     0.075550000000     0.092280000000     0          
O302     O      0.500000000000     0.167500000000     0.059300000000     0          
O303     O      0.500000000000     0.053000000000     0.205700000000     0          
C304     C      0.500000000000     0.346000000000     0.063900000000     0          
H305     H      0.500000000000     0.366700000000     0.107400000000     0          
C306     C      0.500000000000     0.285600000000     0.063900000000     0          
H307     H      0.500000000000     0.265000000000     0.107500000000     0          
Zr308    Zr     0.500000000000     0.924450000000     0.092280000000     0          
O309     O      0.500000000000     0.832500000000     0.059300000000     0          
O310     O      0.500000000000     0.947000000000     0.205700000000     0          
C311     C      0.500000000000     0.654000000000     0.063900000000     0          
H312     H      0.500000000000     0.633300000000     0.107400000000     0          
C313     C      0.500000000000     0.714400000000     0.063900000000     0          
H314     H      0.500000000000     0.735000000000     0.107500000000     0          
Zr315    Zr     0.924450000000     0.500000000000     0.592280000000     0          
O316     O      0.832500000000     0.500000000000     0.559300000000     0          
O317     O      0.947000000000     0.500000000000     0.705700000000     0          
C318     C      0.654000000000     0.500000000000     0.563900000000     0          
H319     H      0.633300000000     0.500000000000     0.607400000000     0          
C320     C      0.714400000000     0.500000000000     0.563900000000     0          
H321     H      0.735000000000     0.500000000000     0.607500000000     0          
Zr322    Zr     0.075550000000     0.500000000000     0.592280000000     0          
O323     O      0.167500000000     0.500000000000     0.559300000000     0          
O324     O      0.053000000000     0.500000000000     0.705700000000     0          
C325     C      0.346000000000     0.500000000000     0.563900000000     0          
H326     H      0.366700000000     0.500000000000     0.607400000000     0          
C327     C      0.285600000000     0.500000000000     0.563900000000     0          
H328     H      0.265000000000     0.500000000000     0.607500000000     0          
Zr329    Zr     0.500000000000     0.075550000000     0.907720000000     0          
O330     O      0.500000000000     0.167500000000     0.940700000000     0          
O331     O      0.500000000000     0.053000000000     0.794300000000     0          
C332     C      0.500000000000     0.346000000000     0.936100000000     0          
H333     H      0.500000000000     0.366700000000     0.892600000000     0          
C334     C      0.500000000000     0.285600000000     0.936100000000     0          
H335     H      0.500000000000     0.265000000000     0.892500000000     0          
Zr336    Zr     0.500000000000     0.924450000000     0.907720000000     0          
O337     O      0.500000000000     0.832500000000     0.940700000000     0          
O338     O      0.500000000000     0.947000000000     0.794300000000     0          
C339     C      0.500000000000     0.654000000000     0.936100000000     0          
H340     H      0.500000000000     0.633300000000     0.892600000000     0          
C341     C      0.500000000000     0.714400000000     0.936100000000     0          
H342     H      0.500000000000     0.735000000000     0.892500000000     0          
Zr343    Zr     0.075550000000     0.500000000000     0.407720000000     0          
O344     O      0.167500000000     0.500000000000     0.440700000000     0          
O345     O      0.053000000000     0.500000000000     0.294300000000     0          
C346     C      0.346000000000     0.500000000000     0.436100000000     0          
H347     H      0.366700000000     0.500000000000     0.392600000000     0          
C348     C      0.285600000000     0.500000000000     0.436100000000     0          
H349     H      0.265000000000     0.500000000000     0.392500000000     0          
Zr350    Zr     0.924450000000     0.500000000000     0.407720000000     0          
O351     O      0.832500000000     0.500000000000     0.440700000000     0          
O352     O      0.947000000000     0.500000000000     0.294300000000     0          
C353     C      0.654000000000     0.500000000000     0.436100000000     0          
H354     H      0.633300000000     0.500000000000     0.392600000000     0          
C355     C      0.714400000000     0.500000000000     0.436100000000     0          
H356     H      0.735000000000     0.500000000000     0.392500000000     0          
O357     O      0.446700000000     0.074200000000     0.000000000000     0          
C358     C      0.449300000000     0.469150000000     0.000000000000     0          
C359     C      0.391400000000     0.439500000000     0.000000000000     0          
H360     H      0.397000000000     0.397400000000     0.000000000000     0          
O361     O      0.553300000000     0.925800000000     0.000000000000     0          
C362     C      0.550700000000     0.530850000000     0.000000000000     0          
H363     H      0.586300000000     0.551300000000     0.000000000000     0          
O364     O      0.925800000000     0.446700000000     0.500000000000     0          
C365     C      0.530850000000     0.449300000000     0.500000000000     0          
H366     H      0.551300000000     0.413700000000     0.500000000000     0          
O367     O      0.074200000000     0.553300000000     0.500000000000     0          
C368     C      0.469150000000     0.550700000000     0.500000000000     0          
H369     H      0.448700000000     0.586300000000     0.500000000000     0          
O370     O      0.553300000000     0.074200000000     0.000000000000     0          
C371     C      0.550700000000     0.469150000000     0.000000000000     0          
H372     H      0.586300000000     0.448700000000     0.000000000000     0          
O373     O      0.446700000000     0.925800000000     0.000000000000     0          
C374     C      0.449300000000     0.530850000000     0.000000000000     0          
H375     H      0.413700000000     0.551300000000     0.000000000000     0          
O376     O      0.074200000000     0.446700000000     0.500000000000     0          
C377     C      0.469150000000     0.449300000000     0.500000000000     0          
H378     H      0.448700000000     0.413700000000     0.500000000000     0          
O379     O      0.925800000000     0.553300000000     0.500000000000     0          
C380     C      0.530850000000     0.550700000000     0.500000000000     0          
C381     C      0.560500000000     0.608600000000     0.500000000000     0          
H382     H      0.602600000000     0.603000000000     0.500000000000     0          
O383     O      0.447300000000     0.000000000000     0.091500000000     0          
O384     O      0.552700000000     0.000000000000     0.091500000000     0          
O385     O      0.000000000000     0.447300000000     0.591500000000     0          
O386     O      0.000000000000     0.552700000000     0.591500000000     0          
O387     O      0.552700000000     0.000000000000     0.908500000000     0          
O388     O      0.447300000000     0.000000000000     0.908500000000     0          
O389     O      0.000000000000     0.447300000000     0.408500000000     0          
O390     O      0.000000000000     0.552700000000     0.408500000000     0          
C391     C      0.500000000000     0.439600000000     0.000000000000     0          
C392     C      0.500000000000     0.375600000000     0.000000000000     0          
C393     C      0.500000000000     0.255500000000     0.000000000000     0          
C394     C      0.500000000000     0.190800000000     0.000000000000     0          
C395     C      0.500000000000     0.560400000000     0.000000000000     0          
C396     C      0.500000000000     0.624400000000     0.000000000000     0          
C397     C      0.500000000000     0.744500000000     0.000000000000     0          
C398     C      0.500000000000     0.809200000000     0.000000000000     0          
C399     C      0.560400000000     0.500000000000     0.500000000000     0          
C400     C      0.624400000000     0.500000000000     0.500000000000     0          
C401     C      0.744500000000     0.500000000000     0.500000000000     0          
C402     C      0.809200000000     0.500000000000     0.500000000000     0          
C403     C      0.439600000000     0.500000000000     0.500000000000     0          
C404     C      0.375600000000     0.500000000000     0.500000000000     0          
C405     C      0.255500000000     0.500000000000     0.500000000000     0          
C406     C      0.190800000000     0.500000000000     0.500000000000     0          
C407     C      0.500000000000     0.000000000000     0.460000000000     0          
C408     C      0.500000000000     0.000000000000     0.312000000000     0          
C409     C      0.500000000000     0.000000000000     0.232600000000     0          
C410     C      0.000000000000     0.500000000000     0.960000000000     0          
C411     C      0.000000000000     0.500000000000     0.812000000000     0          
C412     C      0.000000000000     0.500000000000     0.732600000000     0          
C413     C      0.500000000000     0.000000000000     0.540000000000     0          
C414     C      0.500000000000     0.000000000000     0.688000000000     0          
C415     C      0.500000000000     0.000000000000     0.767400000000     0          
C416     C      0.000000000000     0.500000000000     0.040000000000     0          
C417     C      0.000000000000     0.500000000000     0.188000000000     0          
C418     C      0.000000000000     0.500000000000     0.267400000000     0          
F419     F      0.409500000000     0.916100000000     0.500000000000     0          
F420     F      0.083900000000     0.409500000000     0.000000000000     0          
F421     F      0.409500000000     0.083900000000     0.500000000000     0          
F422     F      0.916100000000     0.409500000000     0.000000000000     0          
F423     F      0.500000000000     0.878400000000     0.500000000000     0          
F424     F      0.500000000000     0.121600000000     0.500000000000     0          
F425     F      0.121600000000     0.500000000000     0.000000000000     0          
F426     F      0.878400000000     0.500000000000     0.000000000000     0          


