data_NEJNAU

_audit_creation_method RASPA-1.0
_audit_creation_date 2020-12-11
_audit_author_name 'Rocio Bueno-Perez'

_cell_length_a    23.1014
_cell_length_b    23.1014
_cell_length_c    18.8999
_cell_angle_alpha 90
_cell_angle_beta  90
_cell_angle_gamma 90
_cell_volume      10086.4

_symmetry_cell_setting          triclinic
_symmetry_space_group_name_Hall 'P 1'
_symmetry_space_group_name_H-M  'P 1'
_symmetry_Int_Tables_number     1

_symmetry_equiv_pos_as_xyz 'x,y,z'

loop_
_atom_site_label
_atom_site_type_symbol
_atom_site_fract_x
_atom_site_fract_y
_atom_site_fract_z
_atom_site_charge
O1       O      0.058710000000     0.343800000000     0.072200000000     0          
O2       O      0.108290000000     0.415830000000     0.133000000000     0          
C3       C      0.197900000000     0.239000000000     0.231200000000     0          
C4       C      0.164300000000     0.221900000000     0.174200000000     0          
C5       C      0.130200000000     0.261400000000     0.137200000000     0          
H6       H      0.107000000000     0.249100000000     0.098500000000     0          
C7       C      0.130400000000     0.318300000000     0.157600000000     0          
C8       C      0.164000000000     0.335300000000     0.213700000000     0          
H9       H      0.165400000000     0.375000000000     0.226700000000     0          
C10      C      0.196100000000     0.295000000000     0.251600000000     0          
C11      C      0.096200000000     0.363100000000     0.117300000000     0          
C12      C      0.469770000000     0.456400000000     0.035100000000     0          
C13      C      0.440400000000     0.407700000000     0.074200000000     0          
H14      H      0.444200000000     0.414000000000     0.125300000000     0          
H15      H      0.399300000000     0.406700000000     0.061400000000     0          
H16      H      0.458600000000     0.370900000000     0.061400000000     0          
F17      F      0.224200000000     0.294900000000     0.378900000000     0          
F18      F      0.289600000000     0.327900000000     0.303300000000     0          
F19      F      0.211800000000     0.376600000000     0.337400000000     0          
H20      H      0.164600000000     0.182400000000     0.160000000000     0          
C21      C      0.228900000000     0.321600000000     0.311700000000     0          
O22      O      0.941290000000     0.656200000000     0.072200000000     0          
O23      O      0.891710000000     0.584170000000     0.133000000000     0          
C24      C      0.802100000000     0.761000000000     0.231200000000     0          
C25      C      0.835700000000     0.778100000000     0.174200000000     0          
C26      C      0.869800000000     0.738600000000     0.137200000000     0          
H27      H      0.893000000000     0.750900000000     0.098500000000     0          
C28      C      0.869600000000     0.681700000000     0.157600000000     0          
C29      C      0.836000000000     0.664700000000     0.213700000000     0          
H30      H      0.834600000000     0.625000000000     0.226700000000     0          
C31      C      0.803900000000     0.705000000000     0.251600000000     0          
C32      C      0.903800000000     0.636900000000     0.117300000000     0          
F33      F      0.775800000000     0.705100000000     0.378900000000     0          
F34      F      0.710400000000     0.672100000000     0.303300000000     0          
F35      F      0.788200000000     0.623400000000     0.337400000000     0          
H36      H      0.835400000000     0.817600000000     0.160000000000     0          
C37      C      0.771100000000     0.678400000000     0.311700000000     0          
O38      O      0.656200000000     0.058710000000     0.572200000000     0          
O39      O      0.584170000000     0.108290000000     0.633000000000     0          
C40      C      0.761000000000     0.197900000000     0.731200000000     0          
C41      C      0.778100000000     0.164300000000     0.674200000000     0          
C42      C      0.738600000000     0.130200000000     0.637200000000     0          
H43      H      0.750900000000     0.107000000000     0.598500000000     0          
C44      C      0.681700000000     0.130400000000     0.657600000000     0          
C45      C      0.664700000000     0.164000000000     0.713700000000     0          
H46      H      0.625000000000     0.165400000000     0.726700000000     0          
C47      C      0.705000000000     0.196100000000     0.751600000000     0          
C48      C      0.636900000000     0.096200000000     0.617300000000     0          
F49      F      0.705100000000     0.224200000000     0.878900000000     0          
F50      F      0.672100000000     0.289600000000     0.803300000000     0          
F51      F      0.623400000000     0.211800000000     0.837400000000     0          
H52      H      0.817600000000     0.164600000000     0.660000000000     0          
C53      C      0.678400000000     0.228900000000     0.811700000000     0          
O54      O      0.343800000000     0.941290000000     0.572200000000     0          
O55      O      0.415830000000     0.891710000000     0.633000000000     0          
C56      C      0.239000000000     0.802100000000     0.731200000000     0          
C57      C      0.221900000000     0.835700000000     0.674200000000     0          
C58      C      0.261400000000     0.869800000000     0.637200000000     0          
H59      H      0.249100000000     0.893000000000     0.598500000000     0          
C60      C      0.318300000000     0.869600000000     0.657600000000     0          
C61      C      0.335300000000     0.836000000000     0.713700000000     0          
H62      H      0.375000000000     0.834600000000     0.726700000000     0          
C63      C      0.295000000000     0.803900000000     0.751600000000     0          
C64      C      0.363100000000     0.903800000000     0.617300000000     0          
C65      C      0.456400000000     0.530230000000     0.535100000000     0          
F66      F      0.294900000000     0.775800000000     0.878900000000     0          
F67      F      0.327900000000     0.710400000000     0.803300000000     0          
F68      F      0.376600000000     0.788200000000     0.837400000000     0          
H69      H      0.182400000000     0.835400000000     0.660000000000     0          
C70      C      0.321600000000     0.771100000000     0.811700000000     0          
H71      H      0.426500000000     0.550400000000     0.559100000000     0          
F72      F      0.838300000000     0.115700000000     0.814400000000     0          
F73      F      0.868000000000     0.150800000000     0.916700000000     0          
F74      F      0.775000000000     0.151400000000     0.891100000000     0          
O75      O      0.941290000000     0.343800000000     0.927800000000     0          
O76      O      0.891710000000     0.415830000000     0.867000000000     0          
C77      C      0.802100000000     0.239000000000     0.768800000000     0          
C78      C      0.835700000000     0.221900000000     0.825800000000     0          
C79      C      0.869800000000     0.261400000000     0.862800000000     0          
H80      H      0.893000000000     0.249100000000     0.901500000000     0          
C81      C      0.869600000000     0.318300000000     0.842400000000     0          
C82      C      0.836000000000     0.335300000000     0.786300000000     0          
H83      H      0.834600000000     0.375000000000     0.773300000000     0          
C84      C      0.803900000000     0.295000000000     0.748400000000     0          
H85      H      0.783100000000     0.306900000000     0.707600000000     0          
C86      C      0.831500000000     0.163900000000     0.860200000000     0          
C87      C      0.903800000000     0.363100000000     0.882700000000     0          
F88      F      0.161700000000     0.884300000000     0.814400000000     0          
F89      F      0.132000000000     0.849200000000     0.916700000000     0          
F90      F      0.225000000000     0.848600000000     0.891100000000     0          
O91      O      0.058710000000     0.656200000000     0.927800000000     0          
O92      O      0.108290000000     0.584170000000     0.867000000000     0          
C93      C      0.197900000000     0.761000000000     0.768800000000     0          
C94      C      0.164300000000     0.778100000000     0.825800000000     0          
C95      C      0.130200000000     0.738600000000     0.862800000000     0          
H96      H      0.107000000000     0.750900000000     0.901500000000     0          
C97      C      0.130400000000     0.681700000000     0.842400000000     0          
C98      C      0.164000000000     0.664700000000     0.786300000000     0          
H99      H      0.165400000000     0.625000000000     0.773300000000     0          
C100     C      0.196100000000     0.705000000000     0.748400000000     0          
H101     H      0.216900000000     0.693100000000     0.707600000000     0          
C102     C      0.168500000000     0.836100000000     0.860200000000     0          
C103     C      0.096200000000     0.636900000000     0.882700000000     0          
C104     C      0.469770000000     0.543600000000     0.964900000000     0          
H105     H      0.449600000000     0.573500000000     0.940900000000     0          
F106     F      0.115700000000     0.161700000000     0.314400000000     0          
F107     F      0.150800000000     0.132000000000     0.416700000000     0          
F108     F      0.151400000000     0.225000000000     0.391100000000     0          
O109     O      0.343800000000     0.058710000000     0.427800000000     0          
O110     O      0.415830000000     0.108290000000     0.367000000000     0          
C111     C      0.239000000000     0.197900000000     0.268800000000     0          
C112     C      0.221900000000     0.164300000000     0.325800000000     0          
C113     C      0.261400000000     0.130200000000     0.362800000000     0          
H114     H      0.249100000000     0.107000000000     0.401500000000     0          
C115     C      0.318300000000     0.130400000000     0.342400000000     0          
C116     C      0.335300000000     0.164000000000     0.286300000000     0          
H117     H      0.375000000000     0.165400000000     0.273300000000     0          
C118     C      0.295000000000     0.196100000000     0.248400000000     0          
H119     H      0.306900000000     0.216900000000     0.207600000000     0          
C120     C      0.163900000000     0.168500000000     0.360200000000     0          
C121     C      0.363100000000     0.096200000000     0.382700000000     0          
F122     F      0.884300000000     0.838300000000     0.314400000000     0          
F123     F      0.849200000000     0.868000000000     0.416700000000     0          
F124     F      0.848600000000     0.775000000000     0.391100000000     0          
O125     O      0.656200000000     0.941290000000     0.427800000000     0          
O126     O      0.584170000000     0.891710000000     0.367000000000     0          
C127     C      0.761000000000     0.802100000000     0.268800000000     0          
C128     C      0.778100000000     0.835700000000     0.325800000000     0          
C129     C      0.738600000000     0.869800000000     0.362800000000     0          
H130     H      0.750900000000     0.893000000000     0.401500000000     0          
C131     C      0.681700000000     0.869600000000     0.342400000000     0          
C132     C      0.664700000000     0.836000000000     0.286300000000     0          
H133     H      0.625000000000     0.834600000000     0.273300000000     0          
C134     C      0.705000000000     0.803900000000     0.248400000000     0          
H135     H      0.693100000000     0.783100000000     0.207600000000     0          
C136     C      0.836100000000     0.831500000000     0.360200000000     0          
C137     C      0.636900000000     0.903800000000     0.382700000000     0          
C138     C      0.543600000000     0.530230000000     0.464900000000     0          
C139     C      0.592300000000     0.559600000000     0.425800000000     0          
H140     H      0.586000000000     0.555800000000     0.374700000000     0          
H141     H      0.593300000000     0.600700000000     0.438600000000     0          
H142     H      0.629100000000     0.541400000000     0.438600000000     0          
F143     F      0.838300000000     0.884300000000     0.814400000000     0          
F144     F      0.868000000000     0.849200000000     0.916700000000     0          
F145     F      0.775000000000     0.848600000000     0.891100000000     0          
O146     O      0.941290000000     0.656200000000     0.927800000000     0          
O147     O      0.891710000000     0.584170000000     0.867000000000     0          
C148     C      0.802100000000     0.761000000000     0.768800000000     0          
C149     C      0.835700000000     0.778100000000     0.825800000000     0          
C150     C      0.869800000000     0.738600000000     0.862800000000     0          
H151     H      0.893000000000     0.750900000000     0.901500000000     0          
C152     C      0.869600000000     0.681700000000     0.842400000000     0          
C153     C      0.836000000000     0.664700000000     0.786300000000     0          
H154     H      0.834600000000     0.625000000000     0.773300000000     0          
C155     C      0.803900000000     0.705000000000     0.748400000000     0          
H156     H      0.783100000000     0.693100000000     0.707600000000     0          
C157     C      0.831500000000     0.836100000000     0.860200000000     0          
C158     C      0.903800000000     0.636900000000     0.882700000000     0          
C159     C      0.530230000000     0.543600000000     0.964900000000     0          
C160     C      0.559600000000     0.592300000000     0.925800000000     0          
H161     H      0.555800000000     0.586000000000     0.874700000000     0          
H162     H      0.600700000000     0.593300000000     0.938600000000     0          
H163     H      0.541400000000     0.629100000000     0.938600000000     0          
F164     F      0.161700000000     0.115700000000     0.814400000000     0          
F165     F      0.132000000000     0.150800000000     0.916700000000     0          
F166     F      0.225000000000     0.151400000000     0.891100000000     0          
O167     O      0.058710000000     0.343800000000     0.927800000000     0          
O168     O      0.108290000000     0.415830000000     0.867000000000     0          
C169     C      0.197900000000     0.239000000000     0.768800000000     0          
C170     C      0.164300000000     0.221900000000     0.825800000000     0          
C171     C      0.130200000000     0.261400000000     0.862800000000     0          
H172     H      0.107000000000     0.249100000000     0.901500000000     0          
C173     C      0.130400000000     0.318300000000     0.842400000000     0          
C174     C      0.164000000000     0.335300000000     0.786300000000     0          
H175     H      0.165400000000     0.375000000000     0.773300000000     0          
C176     C      0.196100000000     0.295000000000     0.748400000000     0          
H177     H      0.216900000000     0.306900000000     0.707600000000     0          
C178     C      0.168500000000     0.163900000000     0.860200000000     0          
C179     C      0.096200000000     0.363100000000     0.882700000000     0          
F180     F      0.115700000000     0.838300000000     0.314400000000     0          
F181     F      0.150800000000     0.868000000000     0.416700000000     0          
F182     F      0.151400000000     0.775000000000     0.391100000000     0          
O183     O      0.343800000000     0.941290000000     0.427800000000     0          
O184     O      0.415830000000     0.891710000000     0.367000000000     0          
C185     C      0.239000000000     0.802100000000     0.268800000000     0          
C186     C      0.221900000000     0.835700000000     0.325800000000     0          
C187     C      0.261400000000     0.869800000000     0.362800000000     0          
H188     H      0.249100000000     0.893000000000     0.401500000000     0          
C189     C      0.318300000000     0.869600000000     0.342400000000     0          
C190     C      0.335300000000     0.836000000000     0.286300000000     0          
H191     H      0.375000000000     0.834600000000     0.273300000000     0          
C192     C      0.295000000000     0.803900000000     0.248400000000     0          
H193     H      0.306900000000     0.783100000000     0.207600000000     0          
C194     C      0.163900000000     0.831500000000     0.360200000000     0          
C195     C      0.363100000000     0.903800000000     0.382700000000     0          
O196     O      0.656200000000     0.058710000000     0.427800000000     0          
O197     O      0.584170000000     0.108290000000     0.367000000000     0          
C198     C      0.761000000000     0.197900000000     0.268800000000     0          
C199     C      0.778100000000     0.164300000000     0.325800000000     0          
C200     C      0.738600000000     0.130200000000     0.362800000000     0          
H201     H      0.750900000000     0.107000000000     0.401500000000     0          
C202     C      0.681700000000     0.130400000000     0.342400000000     0          
C203     C      0.664700000000     0.164000000000     0.286300000000     0          
H204     H      0.625000000000     0.165400000000     0.273300000000     0          
C205     C      0.705000000000     0.196100000000     0.248400000000     0          
C206     C      0.636900000000     0.096200000000     0.382700000000     0          
C207     C      0.543600000000     0.469770000000     0.464900000000     0          
F208     F      0.705100000000     0.224200000000     0.121100000000     0          
F209     F      0.672100000000     0.289600000000     0.196700000000     0          
F210     F      0.623400000000     0.211800000000     0.162600000000     0          
H211     H      0.817600000000     0.164600000000     0.340000000000     0          
C212     C      0.678400000000     0.228900000000     0.188300000000     0          
H213     H      0.573500000000     0.449600000000     0.440900000000     0          
O214     O      0.058710000000     0.656200000000     0.072200000000     0          
O215     O      0.108290000000     0.584170000000     0.133000000000     0          
C216     C      0.197900000000     0.761000000000     0.231200000000     0          
C217     C      0.164300000000     0.778100000000     0.174200000000     0          
C218     C      0.130200000000     0.738600000000     0.137200000000     0          
H219     H      0.107000000000     0.750900000000     0.098500000000     0          
C220     C      0.130400000000     0.681700000000     0.157600000000     0          
C221     C      0.164000000000     0.664700000000     0.213700000000     0          
H222     H      0.165400000000     0.625000000000     0.226700000000     0          
C223     C      0.196100000000     0.705000000000     0.251600000000     0          
C224     C      0.096200000000     0.636900000000     0.117300000000     0          
F225     F      0.224200000000     0.705100000000     0.378900000000     0          
F226     F      0.289600000000     0.672100000000     0.303300000000     0          
F227     F      0.211800000000     0.623400000000     0.337400000000     0          
H228     H      0.164600000000     0.817600000000     0.160000000000     0          
C229     C      0.228900000000     0.678400000000     0.311700000000     0          
F230     F      0.838300000000     0.115700000000     0.185600000000     0          
F231     F      0.868000000000     0.150800000000     0.083300000000     0          
F232     F      0.775000000000     0.151400000000     0.108900000000     0          
O233     O      0.941290000000     0.343800000000     0.072200000000     0          
O234     O      0.891710000000     0.415830000000     0.133000000000     0          
C235     C      0.802100000000     0.239000000000     0.231200000000     0          
C236     C      0.835700000000     0.221900000000     0.174200000000     0          
C237     C      0.869800000000     0.261400000000     0.137200000000     0          
H238     H      0.893000000000     0.249100000000     0.098500000000     0          
C239     C      0.869600000000     0.318300000000     0.157600000000     0          
C240     C      0.836000000000     0.335300000000     0.213700000000     0          
H241     H      0.834600000000     0.375000000000     0.226700000000     0          
C242     C      0.803900000000     0.295000000000     0.251600000000     0          
H243     H      0.783100000000     0.306900000000     0.292400000000     0          
C244     C      0.831500000000     0.163900000000     0.139800000000     0          
C245     C      0.903800000000     0.363100000000     0.117300000000     0          
C246     C      0.530230000000     0.456400000000     0.035100000000     0          
H247     H      0.550400000000     0.426500000000     0.059100000000     0          
O248     O      0.656200000000     0.941290000000     0.572200000000     0          
O249     O      0.584170000000     0.891710000000     0.633000000000     0          
C250     C      0.761000000000     0.802100000000     0.731200000000     0          
C251     C      0.778100000000     0.835700000000     0.674200000000     0          
C252     C      0.738600000000     0.869800000000     0.637200000000     0          
H253     H      0.750900000000     0.893000000000     0.598500000000     0          
C254     C      0.681700000000     0.869600000000     0.657600000000     0          
C255     C      0.664700000000     0.836000000000     0.713700000000     0          
H256     H      0.625000000000     0.834600000000     0.726700000000     0          
C257     C      0.705000000000     0.803900000000     0.751600000000     0          
C258     C      0.636900000000     0.903800000000     0.617300000000     0          
F259     F      0.705100000000     0.775800000000     0.878900000000     0          
F260     F      0.672100000000     0.710400000000     0.803300000000     0          
F261     F      0.623400000000     0.788200000000     0.837400000000     0          
H262     H      0.817600000000     0.835400000000     0.660000000000     0          
C263     C      0.678400000000     0.771100000000     0.811700000000     0          
O264     O      0.343800000000     0.058710000000     0.572200000000     0          
O265     O      0.415830000000     0.108290000000     0.633000000000     0          
C266     C      0.239000000000     0.197900000000     0.731200000000     0          
C267     C      0.221900000000     0.164300000000     0.674200000000     0          
C268     C      0.261400000000     0.130200000000     0.637200000000     0          
H269     H      0.249100000000     0.107000000000     0.598500000000     0          
C270     C      0.318300000000     0.130400000000     0.657600000000     0          
C271     C      0.335300000000     0.164000000000     0.713700000000     0          
H272     H      0.375000000000     0.165400000000     0.726700000000     0          
C273     C      0.295000000000     0.196100000000     0.751600000000     0          
C274     C      0.363100000000     0.096200000000     0.617300000000     0          
C275     C      0.456400000000     0.469770000000     0.535100000000     0          
C276     C      0.407700000000     0.440400000000     0.574200000000     0          
H277     H      0.414000000000     0.444200000000     0.625300000000     0          
H278     H      0.406700000000     0.399300000000     0.561400000000     0          
H279     H      0.370900000000     0.458600000000     0.561400000000     0          
F280     F      0.294900000000     0.224200000000     0.878900000000     0          
F281     F      0.327900000000     0.289600000000     0.803300000000     0          
F282     F      0.376600000000     0.211800000000     0.837400000000     0          
H283     H      0.182400000000     0.164600000000     0.660000000000     0          
C284     C      0.321600000000     0.228900000000     0.811700000000     0          
Zr285    Zr     0.000000000000     0.392420000000     0.000000000000     0          
Zr286    Zr     0.000000000000     0.607580000000     0.000000000000     0          
Zr287    Zr     0.607580000000     0.000000000000     0.500000000000     0          
Zr288    Zr     0.392420000000     0.000000000000     0.500000000000     0          
Zr289    Zr     0.075550000000     0.500000000000     0.092260000000     0          
O290     O      0.055800000000     0.500000000000     0.206500000000     0          
O291     O      0.167700000000     0.500000000000     0.060800000000     0          
C292     C      0.052360000000     0.500000000000     0.422900000000     0          
C293     C      0.052430000000     0.500000000000     0.349700000000     0          
H294     H      0.088000000000     0.500000000000     0.324500000000     0          
C295     C      0.285200000000     0.500000000000     0.063800000000     0          
H296     H      0.264500000000     0.500000000000     0.107200000000     0          
C297     C      0.345700000000     0.500000000000     0.063700000000     0          
H298     H      0.366300000000     0.500000000000     0.107200000000     0          
H299     H      0.088000000000     0.500000000000     0.447900000000     0          
Zr301    Zr     0.924450000000     0.500000000000     0.092260000000     0          
O302     O      0.944200000000     0.500000000000     0.206500000000     0          
O303     O      0.832300000000     0.500000000000     0.060800000000     0          
C304     C      0.947640000000     0.500000000000     0.422900000000     0          
C305     C      0.947570000000     0.500000000000     0.349700000000     0          
H306     H      0.912000000000     0.500000000000     0.324500000000     0          
C307     C      0.714800000000     0.500000000000     0.063800000000     0          
H308     H      0.735500000000     0.500000000000     0.107200000000     0          
C309     C      0.654300000000     0.500000000000     0.063700000000     0          
H310     H      0.633700000000     0.500000000000     0.107200000000     0          
H311     H      0.912000000000     0.500000000000     0.447900000000     0          
Zr312    Zr     0.500000000000     0.075550000000     0.592260000000     0          
O313     O      0.500000000000     0.055800000000     0.706500000000     0          
O314     O      0.500000000000     0.167700000000     0.560800000000     0          
N315     N      0.500000000000     0.105200000000     0.959000000000     0          
C316     C      0.500000000000     0.052360000000     0.922900000000     0          
C317     C      0.500000000000     0.052430000000     0.849700000000     0          
H318     H      0.500000000000     0.088000000000     0.824500000000     0          
C319     C      0.500000000000     0.285200000000     0.563800000000     0          
H320     H      0.500000000000     0.264500000000     0.607200000000     0          
C321     C      0.500000000000     0.345700000000     0.563700000000     0          
H322     H      0.500000000000     0.366300000000     0.607200000000     0          
H323     H      0.500000000000     0.137900000000     0.935200000000     0          
H324     H      0.500000000000     0.105700000000     0.005600000000     0          
Zr325    Zr     0.500000000000     0.924450000000     0.592260000000     0          
O326     O      0.500000000000     0.944200000000     0.706500000000     0          
O327     O      0.500000000000     0.832300000000     0.560800000000     0          
C328     C      0.500000000000     0.947640000000     0.922900000000     0          
C329     C      0.500000000000     0.947570000000     0.849700000000     0          
H330     H      0.500000000000     0.912000000000     0.824500000000     0          
C331     C      0.500000000000     0.714800000000     0.563800000000     0          
H332     H      0.500000000000     0.735500000000     0.607200000000     0          
C333     C      0.500000000000     0.654300000000     0.563700000000     0          
H334     H      0.500000000000     0.633700000000     0.607200000000     0          
H335     H      0.500000000000     0.912000000000     0.947900000000     0          
Zr336    Zr     0.924450000000     0.500000000000     0.907740000000     0          
O337     O      0.944200000000     0.500000000000     0.793500000000     0          
O338     O      0.832300000000     0.500000000000     0.939200000000     0          
C339     C      0.947640000000     0.500000000000     0.577100000000     0          
C340     C      0.947570000000     0.500000000000     0.650300000000     0          
H341     H      0.912000000000     0.500000000000     0.675500000000     0          
C342     C      0.714800000000     0.500000000000     0.936200000000     0          
H343     H      0.735500000000     0.500000000000     0.892800000000     0          
C344     C      0.654300000000     0.500000000000     0.936300000000     0          
H345     H      0.633700000000     0.500000000000     0.892800000000     0          
H346     H      0.912000000000     0.500000000000     0.552100000000     0          
Zr347    Zr     0.075550000000     0.500000000000     0.907740000000     0          
O348     O      0.055800000000     0.500000000000     0.793500000000     0          
O349     O      0.167700000000     0.500000000000     0.939200000000     0          
N350     N      0.105200000000     0.500000000000     0.541000000000     0          
C351     C      0.052360000000     0.500000000000     0.577100000000     0          
C352     C      0.052430000000     0.500000000000     0.650300000000     0          
H353     H      0.088000000000     0.500000000000     0.675500000000     0          
C354     C      0.285200000000     0.500000000000     0.936200000000     0          
H355     H      0.264500000000     0.500000000000     0.892800000000     0          
C356     C      0.345700000000     0.500000000000     0.936300000000     0          
H357     H      0.366300000000     0.500000000000     0.892800000000     0          
H358     H      0.137900000000     0.500000000000     0.564800000000     0          
H359     H      0.105700000000     0.500000000000     0.494400000000     0          
Zr360    Zr     0.500000000000     0.075550000000     0.407740000000     0          
O361     O      0.500000000000     0.055800000000     0.293500000000     0          
O362     O      0.500000000000     0.167700000000     0.439200000000     0          
C363     C      0.500000000000     0.052360000000     0.077100000000     0          
C364     C      0.500000000000     0.052430000000     0.150300000000     0          
H365     H      0.500000000000     0.088000000000     0.175500000000     0          
C366     C      0.500000000000     0.285200000000     0.436200000000     0          
H367     H      0.500000000000     0.264500000000     0.392800000000     0          
C368     C      0.500000000000     0.345700000000     0.436300000000     0          
H369     H      0.500000000000     0.366300000000     0.392800000000     0          
H370     H      0.500000000000     0.088000000000     0.052100000000     0          
Zr372    Zr     0.500000000000     0.924450000000     0.407740000000     0          
O373     O      0.500000000000     0.944200000000     0.293500000000     0          
O374     O      0.500000000000     0.832300000000     0.439200000000     0          
C375     C      0.500000000000     0.947640000000     0.077100000000     0          
C376     C      0.500000000000     0.947570000000     0.150300000000     0          
H377     H      0.500000000000     0.912000000000     0.175500000000     0          
C378     C      0.500000000000     0.714800000000     0.436200000000     0          
H379     H      0.500000000000     0.735500000000     0.392800000000     0          
C380     C      0.500000000000     0.654300000000     0.436300000000     0          
H381     H      0.500000000000     0.633700000000     0.392800000000     0          
H382     H      0.500000000000     0.912000000000     0.052100000000     0          
O383     O      0.075000000000     0.446100000000     0.000000000000     0          
O384     O      0.925000000000     0.553900000000     0.000000000000     0          
O385     O      0.553900000000     0.075000000000     0.500000000000     0          
O386     O      0.446100000000     0.925000000000     0.500000000000     0          
O387     O      0.925000000000     0.446100000000     0.000000000000     0          
O388     O      0.075000000000     0.553900000000     0.000000000000     0          
O389     O      0.446100000000     0.075000000000     0.500000000000     0          
O390     O      0.553900000000     0.925000000000     0.500000000000     0          
O391     O      0.000000000000     0.446600000000     0.092500000000     0          
O392     O      0.000000000000     0.553400000000     0.092500000000     0          
O393     O      0.553400000000     0.000000000000     0.592500000000     0          
O394     O      0.446600000000     0.000000000000     0.592500000000     0          
O395     O      0.000000000000     0.446600000000     0.907500000000     0          
O396     O      0.000000000000     0.553400000000     0.907500000000     0          
O397     O      0.446600000000     0.000000000000     0.407500000000     0          
O398     O      0.553400000000     0.000000000000     0.407500000000     0          
C399     C      0.000000000000     0.500000000000     0.460200000000     0          
C400     C      0.000000000000     0.500000000000     0.313000000000     0          
C401     C      0.000000000000     0.500000000000     0.234000000000     0          
C402     C      0.500000000000     0.000000000000     0.960200000000     0          
C403     C      0.500000000000     0.000000000000     0.813000000000     0          
C404     C      0.500000000000     0.000000000000     0.734000000000     0          
C405     C      0.000000000000     0.500000000000     0.539800000000     0          
C406     C      0.000000000000     0.500000000000     0.687000000000     0          
C407     C      0.000000000000     0.500000000000     0.766000000000     0          
C408     C      0.500000000000     0.000000000000     0.039800000000     0          
C409     C      0.500000000000     0.000000000000     0.187000000000     0          
C410     C      0.500000000000     0.000000000000     0.266000000000     0          
C411     C      0.190900000000     0.500000000000     0.000000000000     0          
C412     C      0.255300000000     0.500000000000     0.000000000000     0          
C413     C      0.375300000000     0.500000000000     0.000000000000     0          
C414     C      0.439890000000     0.500000000000     0.000000000000     0          
C415     C      0.809100000000     0.500000000000     0.000000000000     0          
C416     C      0.744700000000     0.500000000000     0.000000000000     0          
C417     C      0.624700000000     0.500000000000     0.000000000000     0          
C418     C      0.560110000000     0.500000000000     0.000000000000     0          
C419     C      0.500000000000     0.190900000000     0.500000000000     0          
C420     C      0.500000000000     0.255300000000     0.500000000000     0          
C421     C      0.500000000000     0.375300000000     0.500000000000     0          
C422     C      0.500000000000     0.439890000000     0.500000000000     0          
C423     C      0.500000000000     0.809100000000     0.500000000000     0          
C424     C      0.500000000000     0.744700000000     0.500000000000     0          
C425     C      0.500000000000     0.624700000000     0.500000000000     0          
C426     C      0.500000000000     0.560110000000     0.500000000000     0          


