data_NEJNIC

_audit_creation_method RASPA-1.0
_audit_creation_date 2020-11-2
_audit_author_name 'Rocio Bueno-Perez'

_cell_length_a    23.0716
_cell_length_b    23.0716
_cell_length_c    18.8222
_cell_angle_alpha 90
_cell_angle_beta  90
_cell_angle_gamma 90
_cell_volume      10019

_symmetry_cell_setting          triclinic
_symmetry_space_group_name_Hall 'P 1'
_symmetry_space_group_name_H-M  'P 1'
_symmetry_Int_Tables_number     1

_symmetry_equiv_pos_as_xyz 'x,y,z'

loop_
_atom_site_label
_atom_site_type_symbol
_atom_site_fract_x
_atom_site_fract_y
_atom_site_fract_z
_atom_site_charge
F1       F      0.369900000000     0.349300000000     0.085600000000     0          
F2       F      0.340500000000     0.384200000000     0.186200000000     0          
F3       F      0.278500000000     0.351600000000     0.109600000000     0          
O4       O      0.392400000000     0.084660000000     0.133200000000     0          
O5       O      0.441260000000     0.156060000000     0.072600000000     0          
C6       C      0.302500000000     0.262100000000     0.231300000000     0          
C7       C      0.336300000000     0.278400000000     0.174600000000     0          
C8       C      0.370700000000     0.238400000000     0.138100000000     0          
H9       H      0.394700000000     0.250700000000     0.099900000000     0          
C10      C      0.369700000000     0.181500000000     0.157800000000     0          
C11      C      0.336700000000     0.164900000000     0.214800000000     0          
H12      H      0.335800000000     0.125400000000     0.229000000000     0          
C13      C      0.304600000000     0.205700000000     0.251900000000     0          
H14      H      0.283600000000     0.193900000000     0.292800000000     0          
C15      C      0.404000000000     0.137200000000     0.117200000000     0          
C16      C      0.332700000000     0.337200000000     0.140800000000     0          
F17      F      0.630100000000     0.650700000000     0.085600000000     0          
F18      F      0.659500000000     0.615800000000     0.186200000000     0          
F19      F      0.721500000000     0.648400000000     0.109600000000     0          
O20      O      0.607600000000     0.915340000000     0.133200000000     0          
O21      O      0.558740000000     0.843940000000     0.072600000000     0          
C22      C      0.697500000000     0.737900000000     0.231300000000     0          
C23      C      0.663700000000     0.721600000000     0.174600000000     0          
C24      C      0.629300000000     0.761600000000     0.138100000000     0          
H25      H      0.605300000000     0.749300000000     0.099900000000     0          
C26      C      0.630300000000     0.818500000000     0.157800000000     0          
C27      C      0.663300000000     0.835100000000     0.214800000000     0          
H28      H      0.664200000000     0.874600000000     0.229000000000     0          
C29      C      0.695400000000     0.794300000000     0.251900000000     0          
H30      H      0.716400000000     0.806100000000     0.292800000000     0          
C31      C      0.596000000000     0.862800000000     0.117200000000     0          
C32      C      0.667300000000     0.662800000000     0.140800000000     0          
F33      F      0.650700000000     0.369900000000     0.585600000000     0          
F34      F      0.615800000000     0.340500000000     0.686200000000     0          
F35      F      0.648400000000     0.278500000000     0.609600000000     0          
O36      O      0.915340000000     0.392400000000     0.633200000000     0          
O37      O      0.843940000000     0.441260000000     0.572600000000     0          
C38      C      0.737900000000     0.302500000000     0.731300000000     0          
C39      C      0.721600000000     0.336300000000     0.674600000000     0          
C40      C      0.761600000000     0.370700000000     0.638100000000     0          
H41      H      0.749300000000     0.394700000000     0.599900000000     0          
C42      C      0.818500000000     0.369700000000     0.657800000000     0          
C43      C      0.835100000000     0.336700000000     0.714800000000     0          
H44      H      0.874600000000     0.335800000000     0.729000000000     0          
C45      C      0.794300000000     0.304600000000     0.751900000000     0          
H46      H      0.806100000000     0.283600000000     0.792800000000     0          
C47      C      0.862800000000     0.404000000000     0.617200000000     0          
C48      C      0.662800000000     0.332700000000     0.640800000000     0          
F49      F      0.349300000000     0.630100000000     0.585600000000     0          
F50      F      0.384200000000     0.659500000000     0.686200000000     0          
F51      F      0.351600000000     0.721500000000     0.609600000000     0          
O52      O      0.084660000000     0.607600000000     0.633200000000     0          
O53      O      0.156060000000     0.558740000000     0.572600000000     0          
C54      C      0.262100000000     0.697500000000     0.731300000000     0          
C55      C      0.278400000000     0.663700000000     0.674600000000     0          
C56      C      0.238400000000     0.629300000000     0.638100000000     0          
H57      H      0.250700000000     0.605300000000     0.599900000000     0          
C58      C      0.181500000000     0.630300000000     0.657800000000     0          
C59      C      0.164900000000     0.663300000000     0.714800000000     0          
H60      H      0.125400000000     0.664200000000     0.729000000000     0          
C61      C      0.205700000000     0.695400000000     0.751900000000     0          
H62      H      0.193900000000     0.716400000000     0.792800000000     0          
C63      C      0.137200000000     0.596000000000     0.617200000000     0          
C64      C      0.337200000000     0.667300000000     0.640800000000     0          
O65      O      0.607600000000     0.084660000000     0.866800000000     0          
O66      O      0.558740000000     0.156060000000     0.927400000000     0          
C67      C      0.697500000000     0.262100000000     0.768700000000     0          
C68      C      0.663700000000     0.278400000000     0.825400000000     0          
C69      C      0.629300000000     0.238400000000     0.861900000000     0          
H70      H      0.605300000000     0.250700000000     0.900100000000     0          
C71      C      0.630300000000     0.181500000000     0.842200000000     0          
C72      C      0.663300000000     0.164900000000     0.785200000000     0          
H73      H      0.664200000000     0.125400000000     0.771000000000     0          
C74      C      0.695400000000     0.205700000000     0.748100000000     0          
C75      C      0.596000000000     0.137200000000     0.882800000000     0          
F76      F      0.710600000000     0.123000000000     0.665100000000     0          
F77      F      0.785800000000     0.174100000000     0.692200000000     0          
F78      F      0.720000000000     0.208500000000     0.621100000000     0          
H79      H      0.663800000000     0.317800000000     0.840200000000     0          
C80      C      0.725500000000     0.179000000000     0.685600000000     0          
O81      O      0.392400000000     0.915340000000     0.866800000000     0          
O82      O      0.441260000000     0.843940000000     0.927400000000     0          
C83      C      0.302500000000     0.737900000000     0.768700000000     0          
C84      C      0.336300000000     0.721600000000     0.825400000000     0          
C85      C      0.370700000000     0.761600000000     0.861900000000     0          
H86      H      0.394700000000     0.749300000000     0.900100000000     0          
C87      C      0.369700000000     0.818500000000     0.842200000000     0          
C88      C      0.336700000000     0.835100000000     0.785200000000     0          
H89      H      0.335800000000     0.874600000000     0.771000000000     0          
C90      C      0.304600000000     0.794300000000     0.748100000000     0          
C91      C      0.404000000000     0.862800000000     0.882800000000     0          
F92      F      0.289400000000     0.877000000000     0.665100000000     0          
F93      F      0.214200000000     0.825900000000     0.692200000000     0          
F94      F      0.280000000000     0.791500000000     0.621100000000     0          
H95      H      0.336200000000     0.682200000000     0.840200000000     0          
C96      C      0.274500000000     0.821000000000     0.685600000000     0          
O97      O      0.084660000000     0.392400000000     0.366800000000     0          
O98      O      0.156060000000     0.441260000000     0.427400000000     0          
C99      C      0.262100000000     0.302500000000     0.268700000000     0          
C100     C      0.278400000000     0.336300000000     0.325400000000     0          
C101     C      0.238400000000     0.370700000000     0.361900000000     0          
H102     H      0.250700000000     0.394700000000     0.400100000000     0          
C103     C      0.181500000000     0.369700000000     0.342200000000     0          
C104     C      0.164900000000     0.336700000000     0.285200000000     0          
H105     H      0.125400000000     0.335800000000     0.271000000000     0          
C106     C      0.205700000000     0.304600000000     0.248100000000     0          
C107     C      0.137200000000     0.404000000000     0.382800000000     0          
F108     F      0.123000000000     0.289400000000     0.165100000000     0          
F109     F      0.174100000000     0.214200000000     0.192200000000     0          
F110     F      0.208500000000     0.280000000000     0.121100000000     0          
H111     H      0.317800000000     0.336200000000     0.340200000000     0          
C112     C      0.179000000000     0.274500000000     0.185600000000     0          
O113     O      0.915340000000     0.607600000000     0.366800000000     0          
O114     O      0.843940000000     0.558740000000     0.427400000000     0          
C115     C      0.737900000000     0.697500000000     0.268700000000     0          
C116     C      0.721600000000     0.663700000000     0.325400000000     0          
C117     C      0.761600000000     0.629300000000     0.361900000000     0          
H118     H      0.749300000000     0.605300000000     0.400100000000     0          
C119     C      0.818500000000     0.630300000000     0.342200000000     0          
C120     C      0.835100000000     0.663300000000     0.285200000000     0          
H121     H      0.874600000000     0.664200000000     0.271000000000     0          
C122     C      0.794300000000     0.695400000000     0.248100000000     0          
C123     C      0.862800000000     0.596000000000     0.382800000000     0          
F124     F      0.877000000000     0.710600000000     0.165100000000     0          
F125     F      0.825900000000     0.785800000000     0.192200000000     0          
F126     F      0.791500000000     0.720000000000     0.121100000000     0          
H127     H      0.682200000000     0.663800000000     0.340200000000     0          
C128     C      0.821000000000     0.725500000000     0.185600000000     0          
F129     F      0.630100000000     0.650700000000     0.914400000000     0          
F130     F      0.659500000000     0.615800000000     0.813800000000     0          
F131     F      0.721500000000     0.648400000000     0.890400000000     0          
O132     O      0.607600000000     0.915340000000     0.866800000000     0          
O133     O      0.558740000000     0.843940000000     0.927400000000     0          
C134     C      0.697500000000     0.737900000000     0.768700000000     0          
C135     C      0.663700000000     0.721600000000     0.825400000000     0          
C136     C      0.629300000000     0.761600000000     0.861900000000     0          
H137     H      0.605300000000     0.749300000000     0.900100000000     0          
C138     C      0.630300000000     0.818500000000     0.842200000000     0          
C139     C      0.663300000000     0.835100000000     0.785200000000     0          
H140     H      0.664200000000     0.874600000000     0.771000000000     0          
C141     C      0.695400000000     0.794300000000     0.748100000000     0          
H142     H      0.716400000000     0.806100000000     0.707200000000     0          
C143     C      0.596000000000     0.862800000000     0.882800000000     0          
C144     C      0.667300000000     0.662800000000     0.859200000000     0          
F145     F      0.369900000000     0.349300000000     0.914400000000     0          
F146     F      0.340500000000     0.384200000000     0.813800000000     0          
F147     F      0.278500000000     0.351600000000     0.890400000000     0          
O148     O      0.392400000000     0.084660000000     0.866800000000     0          
O149     O      0.441260000000     0.156060000000     0.927400000000     0          
C150     C      0.302500000000     0.262100000000     0.768700000000     0          
C151     C      0.336300000000     0.278400000000     0.825400000000     0          
C152     C      0.370700000000     0.238400000000     0.861900000000     0          
H153     H      0.394700000000     0.250700000000     0.900100000000     0          
C154     C      0.369700000000     0.181500000000     0.842200000000     0          
C155     C      0.336700000000     0.164900000000     0.785200000000     0          
H156     H      0.335800000000     0.125400000000     0.771000000000     0          
C157     C      0.304600000000     0.205700000000     0.748100000000     0          
H158     H      0.283600000000     0.193900000000     0.707200000000     0          
C159     C      0.404000000000     0.137200000000     0.882800000000     0          
C160     C      0.332700000000     0.337200000000     0.859200000000     0          
O161     O      0.084660000000     0.607600000000     0.366800000000     0          
O162     O      0.156060000000     0.558740000000     0.427400000000     0          
C163     C      0.262100000000     0.697500000000     0.268700000000     0          
C164     C      0.278400000000     0.663700000000     0.325400000000     0          
C165     C      0.238400000000     0.629300000000     0.361900000000     0          
H166     H      0.250700000000     0.605300000000     0.400100000000     0          
C167     C      0.181500000000     0.630300000000     0.342200000000     0          
C168     C      0.164900000000     0.663300000000     0.285200000000     0          
H169     H      0.125400000000     0.664200000000     0.271000000000     0          
C170     C      0.205700000000     0.695400000000     0.248100000000     0          
C171     C      0.137200000000     0.596000000000     0.382800000000     0          
F172     F      0.123000000000     0.710600000000     0.165100000000     0          
F173     F      0.174100000000     0.785800000000     0.192200000000     0          
F174     F      0.208500000000     0.720000000000     0.121100000000     0          
H175     H      0.317800000000     0.663800000000     0.340200000000     0          
C176     C      0.179000000000     0.725500000000     0.185600000000     0          
O177     O      0.915340000000     0.392400000000     0.366800000000     0          
O178     O      0.843940000000     0.441260000000     0.427400000000     0          
C179     C      0.737900000000     0.302500000000     0.268700000000     0          
C180     C      0.721600000000     0.336300000000     0.325400000000     0          
C181     C      0.761600000000     0.370700000000     0.361900000000     0          
H182     H      0.749300000000     0.394700000000     0.400100000000     0          
C183     C      0.818500000000     0.369700000000     0.342200000000     0          
C184     C      0.835100000000     0.336700000000     0.285200000000     0          
H185     H      0.874600000000     0.335800000000     0.271000000000     0          
C186     C      0.794300000000     0.304600000000     0.248100000000     0          
C187     C      0.862800000000     0.404000000000     0.382800000000     0          
F188     F      0.877000000000     0.289400000000     0.165100000000     0          
F189     F      0.825900000000     0.214200000000     0.192200000000     0          
F190     F      0.791500000000     0.280000000000     0.121100000000     0          
H191     H      0.682200000000     0.336200000000     0.340200000000     0          
C192     C      0.821000000000     0.274500000000     0.185600000000     0          
F193     F      0.369900000000     0.650700000000     0.085600000000     0          
F194     F      0.340500000000     0.615800000000     0.186200000000     0          
F195     F      0.278500000000     0.648400000000     0.109600000000     0          
O196     O      0.392400000000     0.915340000000     0.133200000000     0          
O197     O      0.441260000000     0.843940000000     0.072600000000     0          
C198     C      0.302500000000     0.737900000000     0.231300000000     0          
C199     C      0.336300000000     0.721600000000     0.174600000000     0          
C200     C      0.370700000000     0.761600000000     0.138100000000     0          
H201     H      0.394700000000     0.749300000000     0.099900000000     0          
C202     C      0.369700000000     0.818500000000     0.157800000000     0          
C203     C      0.336700000000     0.835100000000     0.214800000000     0          
H204     H      0.335800000000     0.874600000000     0.229000000000     0          
C205     C      0.304600000000     0.794300000000     0.251900000000     0          
H206     H      0.283600000000     0.806100000000     0.292800000000     0          
C207     C      0.404000000000     0.862800000000     0.117200000000     0          
C208     C      0.332700000000     0.662800000000     0.140800000000     0          
F209     F      0.630100000000     0.349300000000     0.085600000000     0          
F210     F      0.659500000000     0.384200000000     0.186200000000     0          
F211     F      0.721500000000     0.351600000000     0.109600000000     0          
O212     O      0.607600000000     0.084660000000     0.133200000000     0          
O213     O      0.558740000000     0.156060000000     0.072600000000     0          
C214     C      0.697500000000     0.262100000000     0.231300000000     0          
C215     C      0.663700000000     0.278400000000     0.174600000000     0          
C216     C      0.629300000000     0.238400000000     0.138100000000     0          
H217     H      0.605300000000     0.250700000000     0.099900000000     0          
C218     C      0.630300000000     0.181500000000     0.157800000000     0          
C219     C      0.663300000000     0.164900000000     0.214800000000     0          
H220     H      0.664200000000     0.125400000000     0.229000000000     0          
C221     C      0.695400000000     0.205700000000     0.251900000000     0          
H222     H      0.716400000000     0.193900000000     0.292800000000     0          
C223     C      0.596000000000     0.137200000000     0.117200000000     0          
C224     C      0.667300000000     0.337200000000     0.140800000000     0          
O225     O      0.915340000000     0.607600000000     0.633200000000     0          
O226     O      0.843940000000     0.558740000000     0.572600000000     0          
C227     C      0.737900000000     0.697500000000     0.731300000000     0          
C228     C      0.721600000000     0.663700000000     0.674600000000     0          
C229     C      0.761600000000     0.629300000000     0.638100000000     0          
H230     H      0.749300000000     0.605300000000     0.599900000000     0          
C231     C      0.818500000000     0.630300000000     0.657800000000     0          
C232     C      0.835100000000     0.663300000000     0.714800000000     0          
H233     H      0.874600000000     0.664200000000     0.729000000000     0          
C234     C      0.794300000000     0.695400000000     0.751900000000     0          
C235     C      0.862800000000     0.596000000000     0.617200000000     0          
F236     F      0.877000000000     0.710600000000     0.834900000000     0          
F237     F      0.825900000000     0.785800000000     0.807800000000     0          
F238     F      0.791500000000     0.720000000000     0.878900000000     0          
H239     H      0.682200000000     0.663800000000     0.659800000000     0          
C240     C      0.821000000000     0.725500000000     0.814400000000     0          
O241     O      0.084660000000     0.392400000000     0.633200000000     0          
O242     O      0.156060000000     0.441260000000     0.572600000000     0          
C243     C      0.262100000000     0.302500000000     0.731300000000     0          
C244     C      0.278400000000     0.336300000000     0.674600000000     0          
C245     C      0.238400000000     0.370700000000     0.638100000000     0          
H246     H      0.250700000000     0.394700000000     0.599900000000     0          
C247     C      0.181500000000     0.369700000000     0.657800000000     0          
C248     C      0.164900000000     0.336700000000     0.714800000000     0          
H249     H      0.125400000000     0.335800000000     0.729000000000     0          
C250     C      0.205700000000     0.304600000000     0.751900000000     0          
C251     C      0.137200000000     0.404000000000     0.617200000000     0          
F252     F      0.123000000000     0.289400000000     0.834900000000     0          
F253     F      0.174100000000     0.214200000000     0.807800000000     0          
F254     F      0.208500000000     0.280000000000     0.878900000000     0          
H255     H      0.317800000000     0.336200000000     0.659800000000     0          
C256     C      0.179000000000     0.274500000000     0.814400000000     0          
Zr257    Zr     0.424340000000     0.000000000000     0.092580000000     0          
O258     O      0.442400000000     0.000000000000     0.206800000000     0          
O259     O      0.332200000000     0.000000000000     0.064200000000     0          
N260     N      0.394500000000     0.000000000000     0.458700000000     0          
C261     C      0.447600000000     0.000000000000     0.349000000000     0          
H262     H      0.411900000000     0.000000000000     0.323700000000     0          
C263     C      0.447740000000     0.000000000000     0.423000000000     0          
C264     C      0.215200000000     0.000000000000     0.064200000000     0          
H265     H      0.235800000000     0.000000000000     0.107900000000     0          
C266     C      0.154700000000     0.000000000000     0.064000000000     0          
H267     H      0.134000000000     0.000000000000     0.107700000000     0          
H268     H      0.361900000000     0.000000000000     0.434500000000     0          
H269     H      0.393600000000     0.000000000000     0.505500000000     0          
Zr270    Zr     0.575660000000     0.000000000000     0.092580000000     0          
O271     O      0.557600000000     0.000000000000     0.206800000000     0          
O272     O      0.667800000000     0.000000000000     0.064200000000     0          
C273     C      0.552400000000     0.000000000000     0.349000000000     0          
H274     H      0.588100000000     0.000000000000     0.323700000000     0          
C275     C      0.552260000000     0.000000000000     0.423000000000     0          
C276     C      0.784800000000     0.000000000000     0.064200000000     0          
H277     H      0.764200000000     0.000000000000     0.107900000000     0          
C278     C      0.845300000000     0.000000000000     0.064000000000     0          
H279     H      0.866000000000     0.000000000000     0.107700000000     0          
H280     H      0.587900000000     0.000000000000     0.448200000000     0          
Zr281    Zr     0.000000000000     0.424340000000     0.592580000000     0          
O282     O      0.000000000000     0.442400000000     0.706800000000     0          
O283     O      0.000000000000     0.332200000000     0.564200000000     0          
C284     C      0.000000000000     0.447600000000     0.849000000000     0          
H285     H      0.000000000000     0.411900000000     0.823700000000     0          
C286     C      0.000000000000     0.447740000000     0.923000000000     0          
C287     C      0.000000000000     0.215200000000     0.564200000000     0          
H288     H      0.000000000000     0.235800000000     0.607900000000     0          
C289     C      0.000000000000     0.154700000000     0.564000000000     0          
H290     H      0.000000000000     0.134000000000     0.607700000000     0          
H291     H      0.000000000000     0.412100000000     0.948200000000     0          
Zr292    Zr     0.000000000000     0.575660000000     0.592580000000     0          
O293     O      0.000000000000     0.557600000000     0.706800000000     0          
O294     O      0.000000000000     0.667800000000     0.564200000000     0          
N295     N      0.000000000000     0.605500000000     0.958700000000     0          
C296     C      0.000000000000     0.552400000000     0.849000000000     0          
H297     H      0.000000000000     0.588100000000     0.823700000000     0          
C298     C      0.000000000000     0.552260000000     0.923000000000     0          
C299     C      0.000000000000     0.784800000000     0.564200000000     0          
H300     H      0.000000000000     0.764200000000     0.607900000000     0          
C301     C      0.000000000000     0.845300000000     0.564000000000     0          
H302     H      0.000000000000     0.866000000000     0.607700000000     0          
H303     H      0.000000000000     0.638100000000     0.934500000000     0          
H304     H      0.000000000000     0.606400000000     0.005500000000     0          
Zr305    Zr     0.575660000000     0.000000000000     0.907420000000     0          
O306     O      0.557600000000     0.000000000000     0.793200000000     0          
O307     O      0.667800000000     0.000000000000     0.935800000000     0          
N308     N      0.605500000000     0.000000000000     0.541300000000     0          
C309     C      0.552400000000     0.000000000000     0.651000000000     0          
H310     H      0.588100000000     0.000000000000     0.676300000000     0          
C311     C      0.552260000000     0.000000000000     0.577000000000     0          
C312     C      0.784800000000     0.000000000000     0.935800000000     0          
H313     H      0.764200000000     0.000000000000     0.892100000000     0          
C314     C      0.845300000000     0.000000000000     0.936000000000     0          
H315     H      0.866000000000     0.000000000000     0.892300000000     0          
H316     H      0.638100000000     0.000000000000     0.565500000000     0          
H317     H      0.606400000000     0.000000000000     0.494500000000     0          
Zr318    Zr     0.424340000000     0.000000000000     0.907420000000     0          
O319     O      0.442400000000     0.000000000000     0.793200000000     0          
O320     O      0.332200000000     0.000000000000     0.935800000000     0          
C321     C      0.447600000000     0.000000000000     0.651000000000     0          
H322     H      0.411900000000     0.000000000000     0.676300000000     0          
C323     C      0.447740000000     0.000000000000     0.577000000000     0          
C324     C      0.215200000000     0.000000000000     0.935800000000     0          
H325     H      0.235800000000     0.000000000000     0.892100000000     0          
C326     C      0.154700000000     0.000000000000     0.936000000000     0          
H327     H      0.134000000000     0.000000000000     0.892300000000     0          
H328     H      0.412100000000     0.000000000000     0.551800000000     0          
Zr329    Zr     0.000000000000     0.424340000000     0.407420000000     0          
O330     O      0.000000000000     0.442400000000     0.293200000000     0          
O331     O      0.000000000000     0.332200000000     0.435800000000     0          
N332     N      0.000000000000     0.394500000000     0.041300000000     0          
C333     C      0.000000000000     0.447600000000     0.151000000000     0          
H334     H      0.000000000000     0.411900000000     0.176300000000     0          
C335     C      0.000000000000     0.447740000000     0.077000000000     0          
C336     C      0.000000000000     0.215200000000     0.435800000000     0          
H337     H      0.000000000000     0.235800000000     0.392100000000     0          
C338     C      0.000000000000     0.154700000000     0.436000000000     0          
H339     H      0.000000000000     0.134000000000     0.392300000000     0          
H340     H      0.000000000000     0.361900000000     0.065500000000     0          
H341     H      0.000000000000     0.393600000000     0.994500000000     0          
Zr342    Zr     0.000000000000     0.575660000000     0.407420000000     0          
O343     O      0.000000000000     0.557600000000     0.293200000000     0          
O344     O      0.000000000000     0.667800000000     0.435800000000     0          
C345     C      0.000000000000     0.552400000000     0.151000000000     0          
H346     H      0.000000000000     0.588100000000     0.176300000000     0          
C347     C      0.000000000000     0.552260000000     0.077000000000     0          
C348     C      0.000000000000     0.784800000000     0.435800000000     0          
H349     H      0.000000000000     0.764200000000     0.392100000000     0          
C350     C      0.000000000000     0.845300000000     0.436000000000     0          
H351     H      0.000000000000     0.866000000000     0.392300000000     0          
H352     H      0.000000000000     0.587900000000     0.051800000000     0          
Zr353    Zr     0.500000000000     0.107580000000     0.000000000000     0          
Zr354    Zr     0.500000000000     0.892420000000     0.000000000000     0          
Zr355    Zr     0.892420000000     0.500000000000     0.500000000000     0          
Zr356    Zr     0.107580000000     0.500000000000     0.500000000000     0          
O357     O      0.425300000000     0.053000000000     0.000000000000     0          
C358     C      0.030290000000     0.052280000000     0.000000000000     0          
H359     H      0.050900000000     0.087900000000     0.000000000000     0          
O360     O      0.574700000000     0.947000000000     0.000000000000     0          
C361     C      0.969710000000     0.947720000000     0.000000000000     0          
H362     H      0.949100000000     0.912100000000     0.000000000000     0          
O363     O      0.947000000000     0.425300000000     0.500000000000     0          
N364     N      0.893000000000     0.059800000000     0.500000000000     0          
H365     H      0.891900000000     0.098000000000     0.500000000000     0          
H366     H      0.860600000000     0.039800000000     0.500000000000     0          
C367     C      0.947720000000     0.030290000000     0.500000000000     0          
O368     O      0.053000000000     0.574700000000     0.500000000000     0          
C369     C      0.052280000000     0.969710000000     0.500000000000     0          
H370     H      0.087900000000     0.949100000000     0.500000000000     0          
O371     O      0.574700000000     0.053000000000     0.000000000000     0          
C372     C      0.969710000000     0.052280000000     0.000000000000     0          
H373     H      0.949100000000     0.087900000000     0.000000000000     0          
O374     O      0.425300000000     0.947000000000     0.000000000000     0          
N375     N      0.059800000000     0.893000000000     0.000000000000     0          
H376     H      0.098000000000     0.891900000000     0.000000000000     0          
H377     H      0.039800000000     0.860600000000     0.000000000000     0          
C378     C      0.030290000000     0.947720000000     0.000000000000     0          
O379     O      0.053000000000     0.425300000000     0.500000000000     0          
C380     C      0.052280000000     0.030290000000     0.500000000000     0          
H381     H      0.087900000000     0.050900000000     0.500000000000     0          
O382     O      0.947000000000     0.574700000000     0.500000000000     0          
C383     C      0.947720000000     0.969710000000     0.500000000000     0          
H384     H      0.912100000000     0.949100000000     0.500000000000     0          
O385     O      0.500000000000     0.053200000000     0.092600000000     0          
O386     O      0.500000000000     0.946800000000     0.092600000000     0          
O387     O      0.946800000000     0.500000000000     0.592600000000     0          
O388     O      0.053200000000     0.500000000000     0.592600000000     0          
O389     O      0.500000000000     0.053200000000     0.907400000000     0          
O390     O      0.500000000000     0.946800000000     0.907400000000     0          
O391     O      0.053200000000     0.500000000000     0.407400000000     0          
O392     O      0.946800000000     0.500000000000     0.407400000000     0          
C393     C      0.500000000000     0.000000000000     0.232800000000     0          
C394     C      0.500000000000     0.000000000000     0.312200000000     0          
C395     C      0.500000000000     0.000000000000     0.460100000000     0          
C396     C      0.000000000000     0.500000000000     0.732800000000     0          
C397     C      0.000000000000     0.500000000000     0.812200000000     0          
C398     C      0.000000000000     0.500000000000     0.960100000000     0          
C399     C      0.500000000000     0.000000000000     0.767200000000     0          
C400     C      0.500000000000     0.000000000000     0.687800000000     0          
C401     C      0.500000000000     0.000000000000     0.539900000000     0          
C402     C      0.000000000000     0.500000000000     0.267200000000     0          
C403     C      0.000000000000     0.500000000000     0.187800000000     0          
C404     C      0.000000000000     0.500000000000     0.039900000000     0          
C405     C      0.309700000000     0.000000000000     0.000000000000     0          
C406     C      0.245300000000     0.000000000000     0.000000000000     0          
C407     C      0.124900000000     0.000000000000     0.000000000000     0          
C408     C      0.060390000000     0.000000000000     0.000000000000     0          
C409     C      0.690300000000     0.000000000000     0.000000000000     0          
C410     C      0.754700000000     0.000000000000     0.000000000000     0          
C411     C      0.875100000000     0.000000000000     0.000000000000     0          
C412     C      0.939610000000     0.000000000000     0.000000000000     0          
C413     C      0.000000000000     0.309700000000     0.500000000000     0          
C414     C      0.000000000000     0.245300000000     0.500000000000     0          
C415     C      0.000000000000     0.124900000000     0.500000000000     0          
C416     C      0.000000000000     0.060390000000     0.500000000000     0          
C417     C      0.000000000000     0.690300000000     0.500000000000     0          
C418     C      0.000000000000     0.754700000000     0.500000000000     0          
C419     C      0.000000000000     0.875100000000     0.500000000000     0          
C420     C      0.000000000000     0.939610000000     0.500000000000     0          


