data_NEJNOI

_audit_creation_method RASPA-1.0
_audit_creation_date 2020-11-2
_audit_author_name 'Rocio Bueno-Perez'

_cell_length_a    23.1592
_cell_length_b    23.1592
_cell_length_c    18.7447
_cell_angle_alpha 90
_cell_angle_beta  90
_cell_angle_gamma 90
_cell_volume      10053.7

_symmetry_cell_setting          triclinic
_symmetry_space_group_name_Hall 'P 1'
_symmetry_space_group_name_H-M  'P 1'
_symmetry_Int_Tables_number     1

_symmetry_equiv_pos_as_xyz 'x,y,z'

loop_
_atom_site_label
_atom_site_type_symbol
_atom_site_fract_x
_atom_site_fract_y
_atom_site_fract_z
_atom_site_charge
O1       O      0.417600000000     0.109100000000     0.136100000000     0          
O2       O      0.343300000000     0.058800000000     0.072400000000     0          
C3       C      0.239300000000     0.198600000000     0.231500000000     0          
C4       C      0.224300000000     0.167100000000     0.172900000000     0          
C5       C      0.263600000000     0.132300000000     0.135200000000     0          
H6       H      0.251800000000     0.110800000000     0.094500000000     0          
C7       C      0.319400000000     0.130600000000     0.159200000000     0          
C8       C      0.336200000000     0.161600000000     0.217700000000     0          
H9       H      0.375100000000     0.160200000000     0.233800000000     0          
C10      C      0.295000000000     0.195900000000     0.253900000000     0          
C11      C      0.363400000000     0.096300000000     0.118900000000     0          
C12      C      0.460700000000     0.469820000000     0.042100000000     0          
F13      F      0.328000000000     0.287900000000     0.308000000000     0          
H14      H      0.433700000000     0.449600000000     0.071000000000     0          
F15      F      0.372000000000     0.208000000000     0.345000000000     0          
F16      F      0.283000000000     0.227000000000     0.380100000000     0          
H17      H      0.185400000000     0.168700000000     0.156800000000     0          
C18      C      0.317200000000     0.228300000000     0.317600000000     0          
F19      F      0.849500000000     0.779200000000     0.107900000000     0          
F20      F      0.848600000000     0.872300000000     0.088200000000     0          
F21      F      0.882400000000     0.839700000000     0.189200000000     0          
O22      O      0.582400000000     0.890900000000     0.136100000000     0          
O23      O      0.656700000000     0.941200000000     0.072400000000     0          
C24      C      0.760700000000     0.801400000000     0.231500000000     0          
C25      C      0.775700000000     0.832900000000     0.172900000000     0          
C26      C      0.736400000000     0.867700000000     0.135200000000     0          
H27      H      0.748200000000     0.889200000000     0.094500000000     0          
C28      C      0.680600000000     0.869400000000     0.159200000000     0          
C29      C      0.663800000000     0.838400000000     0.217700000000     0          
H30      H      0.624900000000     0.839800000000     0.233800000000     0          
C31      C      0.705000000000     0.804100000000     0.253900000000     0          
H32      H      0.693500000000     0.782500000000     0.294600000000     0          
C33      C      0.636600000000     0.903700000000     0.118900000000     0          
C34      C      0.836200000000     0.832600000000     0.143500000000     0          
F35      F      0.779200000000     0.150500000000     0.607900000000     0          
F36      F      0.872300000000     0.151400000000     0.588200000000     0          
F37      F      0.839700000000     0.117600000000     0.689200000000     0          
O38      O      0.890900000000     0.417600000000     0.636100000000     0          
O39      O      0.941200000000     0.343300000000     0.572400000000     0          
N40      N      0.559100000000     0.420200000000     0.585500000000     0          
H41      H      0.597100000000     0.419300000000     0.586400000000     0          
H42      H      0.539100000000     0.395700000000     0.611700000000     0          
C43      C      0.801400000000     0.239300000000     0.731500000000     0          
C44      C      0.832900000000     0.224300000000     0.672900000000     0          
C45      C      0.867700000000     0.263600000000     0.635200000000     0          
H46      H      0.889200000000     0.251800000000     0.594500000000     0          
C47      C      0.869400000000     0.319400000000     0.659200000000     0          
C48      C      0.838400000000     0.336200000000     0.717700000000     0          
H49      H      0.839800000000     0.375100000000     0.733800000000     0          
C50      C      0.804100000000     0.295000000000     0.753900000000     0          
H51      H      0.782500000000     0.306500000000     0.794600000000     0          
C52      C      0.903700000000     0.363400000000     0.618900000000     0          
C53      C      0.832600000000     0.163800000000     0.643500000000     0          
C54      C      0.530180000000     0.460700000000     0.542100000000     0          
F55      F      0.220800000000     0.849500000000     0.607900000000     0          
F56      F      0.127700000000     0.848600000000     0.588200000000     0          
F57      F      0.160300000000     0.882400000000     0.689200000000     0          
O58      O      0.109100000000     0.582400000000     0.636100000000     0          
O59      O      0.058800000000     0.656700000000     0.572400000000     0          
C60      C      0.198600000000     0.760700000000     0.731500000000     0          
C61      C      0.167100000000     0.775700000000     0.672900000000     0          
C62      C      0.132300000000     0.736400000000     0.635200000000     0          
H63      H      0.110800000000     0.748200000000     0.594500000000     0          
C64      C      0.130600000000     0.680600000000     0.659200000000     0          
C65      C      0.161600000000     0.663800000000     0.717700000000     0          
H66      H      0.160200000000     0.624900000000     0.733800000000     0          
C67      C      0.195900000000     0.705000000000     0.753900000000     0          
H68      H      0.217500000000     0.693500000000     0.794600000000     0          
C69      C      0.096300000000     0.636600000000     0.618900000000     0          
C70      C      0.167400000000     0.836200000000     0.643500000000     0          
O71      O      0.582400000000     0.109100000000     0.863900000000     0          
O72      O      0.656700000000     0.058800000000     0.927600000000     0          
C73      C      0.760700000000     0.198600000000     0.768500000000     0          
C74      C      0.775700000000     0.167100000000     0.827100000000     0          
C75      C      0.736400000000     0.132300000000     0.864800000000     0          
H76      H      0.748200000000     0.110800000000     0.905500000000     0          
C77      C      0.680600000000     0.130600000000     0.840800000000     0          
C78      C      0.663800000000     0.161600000000     0.782300000000     0          
H79      H      0.624900000000     0.160200000000     0.766200000000     0          
C80      C      0.705000000000     0.195900000000     0.746100000000     0          
C81      C      0.636600000000     0.096300000000     0.881100000000     0          
C82      C      0.539300000000     0.469820000000     0.957900000000     0          
F83      F      0.672000000000     0.287900000000     0.692000000000     0          
H84      H      0.566300000000     0.449600000000     0.929000000000     0          
F85      F      0.628000000000     0.208000000000     0.655000000000     0          
F86      F      0.717000000000     0.227000000000     0.619900000000     0          
H87      H      0.814600000000     0.168700000000     0.843200000000     0          
C88      C      0.682800000000     0.228300000000     0.682400000000     0          
O89      O      0.417600000000     0.890900000000     0.863900000000     0          
O90      O      0.343300000000     0.941200000000     0.927600000000     0          
C91      C      0.239300000000     0.801400000000     0.768500000000     0          
C92      C      0.224300000000     0.832900000000     0.827100000000     0          
C93      C      0.263600000000     0.867700000000     0.864800000000     0          
H94      H      0.251800000000     0.889200000000     0.905500000000     0          
C95      C      0.319400000000     0.869400000000     0.840800000000     0          
C96      C      0.336200000000     0.838400000000     0.782300000000     0          
H97      H      0.375100000000     0.839800000000     0.766200000000     0          
C98      C      0.295000000000     0.804100000000     0.746100000000     0          
C99      C      0.363400000000     0.903700000000     0.881100000000     0          
F100     F      0.328000000000     0.712100000000     0.692000000000     0          
F101     F      0.372000000000     0.792000000000     0.655000000000     0          
F102     F      0.283000000000     0.773000000000     0.619900000000     0          
H103     H      0.185400000000     0.831300000000     0.843200000000     0          
C104     C      0.317200000000     0.771700000000     0.682400000000     0          
F105     F      0.220800000000     0.150500000000     0.392100000000     0          
F106     F      0.127700000000     0.151400000000     0.411800000000     0          
F107     F      0.160300000000     0.117600000000     0.310800000000     0          
O108     O      0.109100000000     0.417600000000     0.363900000000     0          
O109     O      0.058800000000     0.343300000000     0.427600000000     0          
C110     C      0.198600000000     0.239300000000     0.268500000000     0          
C111     C      0.167100000000     0.224300000000     0.327100000000     0          
C112     C      0.132300000000     0.263600000000     0.364800000000     0          
H113     H      0.110800000000     0.251800000000     0.405500000000     0          
C114     C      0.130600000000     0.319400000000     0.340800000000     0          
C115     C      0.161600000000     0.336200000000     0.282300000000     0          
H116     H      0.160200000000     0.375100000000     0.266200000000     0          
C117     C      0.195900000000     0.295000000000     0.246100000000     0          
H118     H      0.217500000000     0.306500000000     0.205400000000     0          
C119     C      0.096300000000     0.363400000000     0.381100000000     0          
C120     C      0.167400000000     0.163800000000     0.356500000000     0          
O121     O      0.890900000000     0.582400000000     0.363900000000     0          
O122     O      0.941200000000     0.656700000000     0.427600000000     0          
C123     C      0.801400000000     0.760700000000     0.268500000000     0          
C124     C      0.832900000000     0.775700000000     0.327100000000     0          
C125     C      0.867700000000     0.736400000000     0.364800000000     0          
H126     H      0.889200000000     0.748200000000     0.405500000000     0          
C127     C      0.869400000000     0.680600000000     0.340800000000     0          
C128     C      0.838400000000     0.663800000000     0.282300000000     0          
H129     H      0.839800000000     0.624900000000     0.266200000000     0          
C130     C      0.804100000000     0.705000000000     0.246100000000     0          
C131     C      0.903700000000     0.636600000000     0.381100000000     0          
C132     C      0.530180000000     0.539300000000     0.457900000000     0          
F133     F      0.712100000000     0.672000000000     0.192000000000     0          
H134     H      0.550400000000     0.566300000000     0.429000000000     0          
F135     F      0.792000000000     0.628000000000     0.155000000000     0          
F136     F      0.773000000000     0.717000000000     0.119900000000     0          
H137     H      0.831300000000     0.814600000000     0.343200000000     0          
C138     C      0.771700000000     0.682800000000     0.182400000000     0          
F139     F      0.849500000000     0.779200000000     0.892100000000     0          
F140     F      0.848600000000     0.872300000000     0.911800000000     0          
F141     F      0.882400000000     0.839700000000     0.810800000000     0          
O142     O      0.582400000000     0.890900000000     0.863900000000     0          
O143     O      0.656700000000     0.941200000000     0.927600000000     0          
N144     N      0.579800000000     0.559100000000     0.914500000000     0          
H145     H      0.580700000000     0.597100000000     0.913600000000     0          
H146     H      0.604300000000     0.539100000000     0.888300000000     0          
C147     C      0.760700000000     0.801400000000     0.768500000000     0          
C148     C      0.775700000000     0.832900000000     0.827100000000     0          
C149     C      0.736400000000     0.867700000000     0.864800000000     0          
H150     H      0.748200000000     0.889200000000     0.905500000000     0          
C151     C      0.680600000000     0.869400000000     0.840800000000     0          
C152     C      0.663800000000     0.838400000000     0.782300000000     0          
H153     H      0.624900000000     0.839800000000     0.766200000000     0          
C154     C      0.705000000000     0.804100000000     0.746100000000     0          
H155     H      0.693500000000     0.782500000000     0.705400000000     0          
C156     C      0.636600000000     0.903700000000     0.881100000000     0          
C157     C      0.836200000000     0.832600000000     0.856500000000     0          
C158     C      0.539300000000     0.530180000000     0.957900000000     0          
O159     O      0.417600000000     0.109100000000     0.863900000000     0          
O160     O      0.343300000000     0.058800000000     0.927600000000     0          
C161     C      0.239300000000     0.198600000000     0.768500000000     0          
C162     C      0.224300000000     0.167100000000     0.827100000000     0          
C163     C      0.263600000000     0.132300000000     0.864800000000     0          
H164     H      0.251800000000     0.110800000000     0.905500000000     0          
C165     C      0.319400000000     0.130600000000     0.840800000000     0          
C166     C      0.336200000000     0.161600000000     0.782300000000     0          
H167     H      0.375100000000     0.160200000000     0.766200000000     0          
C168     C      0.295000000000     0.195900000000     0.746100000000     0          
C169     C      0.363400000000     0.096300000000     0.881100000000     0          
F170     F      0.328000000000     0.287900000000     0.692000000000     0          
F171     F      0.372000000000     0.208000000000     0.655000000000     0          
F172     F      0.283000000000     0.227000000000     0.619900000000     0          
H173     H      0.185400000000     0.168700000000     0.843200000000     0          
C174     C      0.317200000000     0.228300000000     0.682400000000     0          
O175     O      0.109100000000     0.582400000000     0.363900000000     0          
O176     O      0.058800000000     0.656700000000     0.427600000000     0          
C177     C      0.198600000000     0.760700000000     0.268500000000     0          
C178     C      0.167100000000     0.775700000000     0.327100000000     0          
C179     C      0.132300000000     0.736400000000     0.364800000000     0          
H180     H      0.110800000000     0.748200000000     0.405500000000     0          
C181     C      0.130600000000     0.680600000000     0.340800000000     0          
C182     C      0.161600000000     0.663800000000     0.282300000000     0          
H183     H      0.160200000000     0.624900000000     0.266200000000     0          
C184     C      0.195900000000     0.705000000000     0.246100000000     0          
C185     C      0.096300000000     0.636600000000     0.381100000000     0          
C186     C      0.469820000000     0.539300000000     0.457900000000     0          
F187     F      0.287900000000     0.672000000000     0.192000000000     0          
H188     H      0.449600000000     0.566300000000     0.429000000000     0          
F189     F      0.208000000000     0.628000000000     0.155000000000     0          
F190     F      0.227000000000     0.717000000000     0.119900000000     0          
H191     H      0.168700000000     0.814600000000     0.343200000000     0          
C192     C      0.228300000000     0.682800000000     0.182400000000     0          
F193     F      0.779200000000     0.150500000000     0.392100000000     0          
F194     F      0.872300000000     0.151400000000     0.411800000000     0          
F195     F      0.839700000000     0.117600000000     0.310800000000     0          
O196     O      0.890900000000     0.417600000000     0.363900000000     0          
O197     O      0.941200000000     0.343300000000     0.427600000000     0          
C198     C      0.801400000000     0.239300000000     0.268500000000     0          
C199     C      0.832900000000     0.224300000000     0.327100000000     0          
C200     C      0.867700000000     0.263600000000     0.364800000000     0          
H201     H      0.889200000000     0.251800000000     0.405500000000     0          
C202     C      0.869400000000     0.319400000000     0.340800000000     0          
C203     C      0.838400000000     0.336200000000     0.282300000000     0          
H204     H      0.839800000000     0.375100000000     0.266200000000     0          
C205     C      0.804100000000     0.295000000000     0.246100000000     0          
H206     H      0.782500000000     0.306500000000     0.205400000000     0          
C207     C      0.903700000000     0.363400000000     0.381100000000     0          
C208     C      0.832600000000     0.163800000000     0.356500000000     0          
F209     F      0.150500000000     0.779200000000     0.107900000000     0          
F210     F      0.151400000000     0.872300000000     0.088200000000     0          
F211     F      0.117600000000     0.839700000000     0.189200000000     0          
O212     O      0.417600000000     0.890900000000     0.136100000000     0          
O213     O      0.343300000000     0.941200000000     0.072400000000     0          
C214     C      0.239300000000     0.801400000000     0.231500000000     0          
C215     C      0.224300000000     0.832900000000     0.172900000000     0          
C216     C      0.263600000000     0.867700000000     0.135200000000     0          
H217     H      0.251800000000     0.889200000000     0.094500000000     0          
C218     C      0.319400000000     0.869400000000     0.159200000000     0          
C219     C      0.336200000000     0.838400000000     0.217700000000     0          
H220     H      0.375100000000     0.839800000000     0.233800000000     0          
C221     C      0.295000000000     0.804100000000     0.253900000000     0          
H222     H      0.306500000000     0.782500000000     0.294600000000     0          
C223     C      0.363400000000     0.903700000000     0.118900000000     0          
C224     C      0.163800000000     0.832600000000     0.143500000000     0          
C225     C      0.460700000000     0.530180000000     0.042100000000     0          
H226     H      0.433700000000     0.550400000000     0.071000000000     0          
O227     O      0.582400000000     0.109100000000     0.136100000000     0          
O228     O      0.656700000000     0.058800000000     0.072400000000     0          
C229     C      0.760700000000     0.198600000000     0.231500000000     0          
C230     C      0.775700000000     0.167100000000     0.172900000000     0          
C231     C      0.736400000000     0.132300000000     0.135200000000     0          
H232     H      0.748200000000     0.110800000000     0.094500000000     0          
C233     C      0.680600000000     0.130600000000     0.159200000000     0          
C234     C      0.663800000000     0.161600000000     0.217700000000     0          
H235     H      0.624900000000     0.160200000000     0.233800000000     0          
C236     C      0.705000000000     0.195900000000     0.253900000000     0          
C237     C      0.636600000000     0.096300000000     0.118900000000     0          
F238     F      0.672000000000     0.287900000000     0.308000000000     0          
F239     F      0.628000000000     0.208000000000     0.345000000000     0          
F240     F      0.717000000000     0.227000000000     0.380100000000     0          
H241     H      0.814600000000     0.168700000000     0.156800000000     0          
C242     C      0.682800000000     0.228300000000     0.317600000000     0          
O243     O      0.890900000000     0.582400000000     0.636100000000     0          
O244     O      0.941200000000     0.656700000000     0.572400000000     0          
C245     C      0.801400000000     0.760700000000     0.731500000000     0          
C246     C      0.832900000000     0.775700000000     0.672900000000     0          
C247     C      0.867700000000     0.736400000000     0.635200000000     0          
H248     H      0.889200000000     0.748200000000     0.594500000000     0          
C249     C      0.869400000000     0.680600000000     0.659200000000     0          
C250     C      0.838400000000     0.663800000000     0.717700000000     0          
H251     H      0.839800000000     0.624900000000     0.733800000000     0          
C252     C      0.804100000000     0.705000000000     0.753900000000     0          
C253     C      0.903700000000     0.636600000000     0.618900000000     0          
F254     F      0.712100000000     0.672000000000     0.808000000000     0          
F255     F      0.792000000000     0.628000000000     0.845000000000     0          
F256     F      0.773000000000     0.717000000000     0.880100000000     0          
H257     H      0.831300000000     0.814600000000     0.656800000000     0          
C258     C      0.771700000000     0.682800000000     0.817600000000     0          
F259     F      0.220800000000     0.150500000000     0.607900000000     0          
F260     F      0.127700000000     0.151400000000     0.588200000000     0          
F261     F      0.160300000000     0.117600000000     0.689200000000     0          
O262     O      0.109100000000     0.417600000000     0.636100000000     0          
O263     O      0.058800000000     0.343300000000     0.572400000000     0          
C264     C      0.198600000000     0.239300000000     0.731500000000     0          
C265     C      0.167100000000     0.224300000000     0.672900000000     0          
C266     C      0.132300000000     0.263600000000     0.635200000000     0          
H267     H      0.110800000000     0.251800000000     0.594500000000     0          
C268     C      0.130600000000     0.319400000000     0.659200000000     0          
C269     C      0.161600000000     0.336200000000     0.717700000000     0          
H270     H      0.160200000000     0.375100000000     0.733800000000     0          
C271     C      0.195900000000     0.295000000000     0.753900000000     0          
H272     H      0.217500000000     0.306500000000     0.794600000000     0          
C273     C      0.096300000000     0.363400000000     0.618900000000     0          
C274     C      0.167400000000     0.163800000000     0.643500000000     0          
C275     C      0.469820000000     0.460700000000     0.542100000000     0          
H276     H      0.449600000000     0.433700000000     0.571000000000     0          
Zr277    Zr     0.500000000000     0.075460000000     0.093110000000     0          
O278     O      0.500000000000     0.050700000000     0.207100000000     0          
O279     O      0.500000000000     0.167800000000     0.061700000000     0          
C280     C      0.500000000000     0.947900000000     0.423700000000     0          
C281     C      0.500000000000     0.947930000000     0.349600000000     0          
H282     H      0.500000000000     0.912400000000     0.324300000000     0          
C283     C      0.500000000000     0.284600000000     0.064300000000     0          
H284     H      0.500000000000     0.264000000000     0.108100000000     0          
C285     C      0.500000000000     0.345000000000     0.064300000000     0          
H286     H      0.500000000000     0.365500000000     0.108200000000     0          
H287     H      0.500000000000     0.912400000000     0.449200000000     0          
N288     N      0.500000000000     0.052100000000     0.423700000000     0          
Zr289    Zr     0.500000000000     0.924540000000     0.093110000000     0          
O290     O      0.500000000000     0.949300000000     0.207100000000     0          
O291     O      0.500000000000     0.832200000000     0.061700000000     0          
C292     C      0.500000000000     0.052070000000     0.349600000000     0          
H293     H      0.500000000000     0.087600000000     0.324300000000     0          
C294     C      0.500000000000     0.715400000000     0.064300000000     0          
H295     H      0.500000000000     0.736000000000     0.108100000000     0          
C296     C      0.500000000000     0.655000000000     0.064300000000     0          
H297     H      0.500000000000     0.634500000000     0.108200000000     0          
Zr298    Zr     0.924540000000     0.500000000000     0.593110000000     0          
O299     O      0.949300000000     0.500000000000     0.707100000000     0          
O300     O      0.832200000000     0.500000000000     0.561700000000     0          
C301     C      0.052100000000     0.500000000000     0.923700000000     0          
C302     C      0.052070000000     0.500000000000     0.849600000000     0          
H303     H      0.087600000000     0.500000000000     0.824300000000     0          
C304     C      0.715400000000     0.500000000000     0.564300000000     0          
H305     H      0.736000000000     0.500000000000     0.608100000000     0          
C306     C      0.655000000000     0.500000000000     0.564300000000     0          
H307     H      0.634500000000     0.500000000000     0.608200000000     0          
H308     H      0.087600000000     0.500000000000     0.949200000000     0          
N309     N      0.947900000000     0.500000000000     0.923700000000     0          
Zr310    Zr     0.075460000000     0.500000000000     0.593110000000     0          
O311     O      0.050700000000     0.500000000000     0.707100000000     0          
O312     O      0.167800000000     0.500000000000     0.561700000000     0          
C313     C      0.947930000000     0.500000000000     0.849600000000     0          
H314     H      0.912400000000     0.500000000000     0.824300000000     0          
C315     C      0.284600000000     0.500000000000     0.564300000000     0          
H316     H      0.264000000000     0.500000000000     0.608100000000     0          
C317     C      0.345000000000     0.500000000000     0.564300000000     0          
H318     H      0.365500000000     0.500000000000     0.608200000000     0          
Zr319    Zr     0.500000000000     0.075460000000     0.906890000000     0          
O320     O      0.500000000000     0.050700000000     0.792900000000     0          
O321     O      0.500000000000     0.167800000000     0.938300000000     0          
C322     C      0.500000000000     0.947900000000     0.576300000000     0          
C323     C      0.500000000000     0.947930000000     0.650400000000     0          
H324     H      0.500000000000     0.912400000000     0.675700000000     0          
C325     C      0.500000000000     0.284600000000     0.935700000000     0          
H326     H      0.500000000000     0.264000000000     0.891900000000     0          
C327     C      0.500000000000     0.345000000000     0.935700000000     0          
H328     H      0.500000000000     0.365500000000     0.891800000000     0          
H329     H      0.500000000000     0.912400000000     0.550800000000     0          
N330     N      0.500000000000     0.052100000000     0.576300000000     0          
Zr331    Zr     0.500000000000     0.924540000000     0.906890000000     0          
O332     O      0.500000000000     0.949300000000     0.792900000000     0          
O333     O      0.500000000000     0.832200000000     0.938300000000     0          
C334     C      0.500000000000     0.052070000000     0.650400000000     0          
H335     H      0.500000000000     0.087600000000     0.675700000000     0          
C336     C      0.500000000000     0.715400000000     0.935700000000     0          
H337     H      0.500000000000     0.736000000000     0.891900000000     0          
C338     C      0.500000000000     0.655000000000     0.935700000000     0          
H339     H      0.500000000000     0.634500000000     0.891800000000     0          
Zr340    Zr     0.075460000000     0.500000000000     0.406890000000     0          
O341     O      0.050700000000     0.500000000000     0.292900000000     0          
O342     O      0.167800000000     0.500000000000     0.438300000000     0          
C343     C      0.947930000000     0.500000000000     0.150400000000     0          
H344     H      0.912400000000     0.500000000000     0.175700000000     0          
C345     C      0.284600000000     0.500000000000     0.435700000000     0          
H346     H      0.264000000000     0.500000000000     0.391900000000     0          
C347     C      0.345000000000     0.500000000000     0.435700000000     0          
H348     H      0.365500000000     0.500000000000     0.391800000000     0          
Zr349    Zr     0.924540000000     0.500000000000     0.406890000000     0          
O350     O      0.949300000000     0.500000000000     0.292900000000     0          
O351     O      0.832200000000     0.500000000000     0.438300000000     0          
C352     C      0.052100000000     0.500000000000     0.076300000000     0          
C353     C      0.052070000000     0.500000000000     0.150400000000     0          
H354     H      0.087600000000     0.500000000000     0.175700000000     0          
C355     C      0.715400000000     0.500000000000     0.435700000000     0          
H356     H      0.736000000000     0.500000000000     0.391900000000     0          
C357     C      0.655000000000     0.500000000000     0.435700000000     0          
H358     H      0.634500000000     0.500000000000     0.391800000000     0          
H359     H      0.087600000000     0.500000000000     0.050800000000     0          
N360     N      0.947900000000     0.500000000000     0.076300000000     0          
Zr361    Zr     0.392620000000     0.000000000000     0.000000000000     0          
Zr362    Zr     0.607380000000     0.000000000000     0.000000000000     0          
Zr363    Zr     0.000000000000     0.392620000000     0.500000000000     0          
Zr364    Zr     0.000000000000     0.607380000000     0.500000000000     0          
O365     O      0.445300000000     0.075400000000     0.000000000000     0          
O366     O      0.554700000000     0.924600000000     0.000000000000     0          
O367     O      0.924600000000     0.445300000000     0.500000000000     0          
O368     O      0.075400000000     0.554700000000     0.500000000000     0          
O369     O      0.554700000000     0.075400000000     0.000000000000     0          
O370     O      0.445300000000     0.924600000000     0.000000000000     0          
O371     O      0.075400000000     0.445300000000     0.500000000000     0          
O372     O      0.924600000000     0.554700000000     0.500000000000     0          
O373     O      0.446600000000     0.000000000000     0.091400000000     0          
O374     O      0.553400000000     0.000000000000     0.091400000000     0          
O375     O      0.000000000000     0.446600000000     0.591400000000     0          
O376     O      0.000000000000     0.553400000000     0.591400000000     0          
O377     O      0.553400000000     0.000000000000     0.908600000000     0          
O378     O      0.446600000000     0.000000000000     0.908600000000     0          
O379     O      0.000000000000     0.446600000000     0.408600000000     0          
O380     O      0.000000000000     0.553400000000     0.408600000000     0          
C381     C      0.500000000000     0.000000000000     0.238000000000     0          
C382     C      0.500000000000     0.000000000000     0.312400000000     0          
C383     C      0.500000000000     0.000000000000     0.460300000000     0          
C384     C      0.000000000000     0.500000000000     0.738000000000     0          
C385     C      0.000000000000     0.500000000000     0.812400000000     0          
C386     C      0.000000000000     0.500000000000     0.960300000000     0          
C387     C      0.500000000000     0.000000000000     0.762000000000     0          
C388     C      0.500000000000     0.000000000000     0.687600000000     0          
C389     C      0.500000000000     0.000000000000     0.539700000000     0          
C390     C      0.000000000000     0.500000000000     0.262000000000     0          
C391     C      0.000000000000     0.500000000000     0.187600000000     0          
C392     C      0.000000000000     0.500000000000     0.039700000000     0          
C393     C      0.500000000000     0.190200000000     0.000000000000     0          
C394     C      0.500000000000     0.254900000000     0.000000000000     0          
C395     C      0.500000000000     0.375000000000     0.000000000000     0          
C396     C      0.500000000000     0.439840000000     0.000000000000     0          
C397     C      0.500000000000     0.809800000000     0.000000000000     0          
C398     C      0.500000000000     0.745100000000     0.000000000000     0          
C399     C      0.500000000000     0.625000000000     0.000000000000     0          
C400     C      0.500000000000     0.560160000000     0.000000000000     0          
C401     C      0.809800000000     0.500000000000     0.500000000000     0          
C402     C      0.745100000000     0.500000000000     0.500000000000     0          
C403     C      0.625000000000     0.500000000000     0.500000000000     0          
C404     C      0.560160000000     0.500000000000     0.500000000000     0          
C405     C      0.190200000000     0.500000000000     0.500000000000     0          
C406     C      0.254900000000     0.500000000000     0.500000000000     0          
C407     C      0.375000000000     0.500000000000     0.500000000000     0          
C408     C      0.439840000000     0.500000000000     0.500000000000     0          


