data_NEJNEY

_audit_creation_method RASPA-1.0
_audit_creation_date 2020-11-2
_audit_author_name 'Rocio Bueno-Perez'

_cell_length_a    23.0922
_cell_length_b    23.0922
_cell_length_c    18.8684
_cell_angle_alpha 90
_cell_angle_beta  90
_cell_angle_gamma 90
_cell_volume      10061.6

_symmetry_cell_setting          triclinic
_symmetry_space_group_name_Hall 'P 1'
_symmetry_space_group_name_H-M  'P 1'
_symmetry_Int_Tables_number     1

_symmetry_equiv_pos_as_xyz 'x,y,z'

loop_
_atom_site_label
_atom_site_type_symbol
_atom_site_fract_x
_atom_site_fract_y
_atom_site_fract_z
_atom_site_charge
F1       F      0.149300000000     0.129000000000     0.087000000000     0          
F2       F      0.147800000000     0.221500000000     0.111000000000     0          
F3       F      0.115800000000     0.157500000000     0.190500000000     0          
O4       O      0.415650000000     0.107980000000     0.132900000000     0          
O5       O      0.344470000000     0.058900000000     0.072450000000     0          
C6       C      0.239200000000     0.198800000000     0.231200000000     0          
C7       C      0.221700000000     0.163300000000     0.176300000000     0          
C8       C      0.261800000000     0.129200000000     0.139100000000     0          
H9       H      0.249200000000     0.105200000000     0.101200000000     0          
C10      C      0.318700000000     0.130400000000     0.157500000000     0          
C11      C      0.336400000000     0.164800000000     0.213100000000     0          
H12      H      0.376100000000     0.166000000000     0.225800000000     0          
C13      C      0.296600000000     0.197600000000     0.250700000000     0          
H14      H      0.309100000000     0.219600000000     0.290400000000     0          
C15      C      0.363000000000     0.096500000000     0.117300000000     0          
C16      C      0.162700000000     0.166800000000     0.143900000000     0          
F17      F      0.850700000000     0.871000000000     0.087000000000     0          
F18      F      0.852200000000     0.778500000000     0.111000000000     0          
F19      F      0.884200000000     0.842500000000     0.190500000000     0          
O20      O      0.584350000000     0.892020000000     0.132900000000     0          
O21      O      0.655530000000     0.941100000000     0.072450000000     0          
C22      C      0.760800000000     0.801200000000     0.231200000000     0          
C23      C      0.778300000000     0.836700000000     0.176300000000     0          
C24      C      0.738200000000     0.870800000000     0.139100000000     0          
H25      H      0.750800000000     0.894800000000     0.101200000000     0          
C26      C      0.681300000000     0.869600000000     0.157500000000     0          
C27      C      0.663600000000     0.835200000000     0.213100000000     0          
H28      H      0.623900000000     0.834000000000     0.225800000000     0          
C29      C      0.703400000000     0.802400000000     0.250700000000     0          
H30      H      0.690900000000     0.780400000000     0.290400000000     0          
C31      C      0.637000000000     0.903500000000     0.117300000000     0          
C32      C      0.837300000000     0.833200000000     0.143900000000     0          
C33      C      0.540690000000     0.530230000000     0.040100000000     0          
H34      H      0.568700000000     0.550300000000     0.067600000000     0          
F35      F      0.871000000000     0.149300000000     0.587000000000     0          
F36      F      0.778500000000     0.147800000000     0.611000000000     0          
F37      F      0.842500000000     0.115800000000     0.690500000000     0          
O38      O      0.892020000000     0.415650000000     0.632900000000     0          
O39      O      0.941100000000     0.344470000000     0.572450000000     0          
N40      N      0.557700000000     0.417000000000     0.581700000000     0          
H41      H      0.595700000000     0.415140000000     0.583400000000     0          
H42      H      0.537100000000     0.392100000000     0.606300000000     0          
C43      C      0.801200000000     0.239200000000     0.731200000000     0          
C44      C      0.836700000000     0.221700000000     0.676300000000     0          
C45      C      0.870800000000     0.261800000000     0.639100000000     0          
H46      H      0.894800000000     0.249200000000     0.601200000000     0          
C47      C      0.869600000000     0.318700000000     0.657500000000     0          
C48      C      0.835200000000     0.336400000000     0.713100000000     0          
H49      H      0.834000000000     0.376100000000     0.725800000000     0          
C50      C      0.802400000000     0.296600000000     0.750700000000     0          
H51      H      0.780400000000     0.309100000000     0.790400000000     0          
C52      C      0.903500000000     0.363000000000     0.617300000000     0          
C53      C      0.833200000000     0.162700000000     0.643900000000     0          
C54      C      0.530230000000     0.459310000000     0.540100000000     0          
O55      O      0.107980000000     0.584350000000     0.632900000000     0          
O56      O      0.058900000000     0.655530000000     0.572450000000     0          
C57      C      0.198800000000     0.760800000000     0.731200000000     0          
C58      C      0.163300000000     0.778300000000     0.676300000000     0          
C59      C      0.129200000000     0.738200000000     0.639100000000     0          
H60      H      0.105200000000     0.750800000000     0.601200000000     0          
C61      C      0.130400000000     0.681300000000     0.657500000000     0          
C62      C      0.164800000000     0.663600000000     0.713100000000     0          
H63      H      0.166000000000     0.623900000000     0.725800000000     0          
C64      C      0.197600000000     0.703400000000     0.750700000000     0          
C65      C      0.096500000000     0.637000000000     0.617300000000     0          
F66      F      0.227400000000     0.706700000000     0.878000000000     0          
F67      F      0.219000000000     0.620200000000     0.831600000000     0          
F68      F      0.292700000000     0.675100000000     0.800100000000     0          
H69      H      0.161900000000     0.818100000000     0.663500000000     0          
C70      C      0.232000000000     0.679200000000     0.811100000000     0          
O71      O      0.584350000000     0.107980000000     0.867100000000     0          
O72      O      0.655530000000     0.058900000000     0.927550000000     0          
C73      C      0.760800000000     0.198800000000     0.768800000000     0          
C74      C      0.778300000000     0.163300000000     0.823700000000     0          
C75      C      0.738200000000     0.129200000000     0.860900000000     0          
H76      H      0.750800000000     0.105200000000     0.898800000000     0          
C77      C      0.681300000000     0.130400000000     0.842500000000     0          
C78      C      0.663600000000     0.164800000000     0.786900000000     0          
H79      H      0.623900000000     0.166000000000     0.774200000000     0          
C80      C      0.703400000000     0.197600000000     0.749300000000     0          
C81      C      0.637000000000     0.096500000000     0.882700000000     0          
F82      F      0.706700000000     0.227400000000     0.622000000000     0          
F83      F      0.620200000000     0.219000000000     0.668400000000     0          
F84      F      0.675100000000     0.292700000000     0.699900000000     0          
H85      H      0.818100000000     0.161900000000     0.836500000000     0          
C86      C      0.679200000000     0.232000000000     0.688900000000     0          
F87      F      0.149300000000     0.871000000000     0.913000000000     0          
F88      F      0.147800000000     0.778500000000     0.889000000000     0          
F89      F      0.115800000000     0.842500000000     0.809500000000     0          
O90      O      0.415650000000     0.892020000000     0.867100000000     0          
O91      O      0.344470000000     0.941100000000     0.927550000000     0          
N92      N      0.417000000000     0.557700000000     0.918300000000     0          
H93      H      0.415140000000     0.595700000000     0.916600000000     0          
H94      H      0.392100000000     0.537100000000     0.893700000000     0          
C95      C      0.239200000000     0.801200000000     0.768800000000     0          
C96      C      0.221700000000     0.836700000000     0.823700000000     0          
C97      C      0.261800000000     0.870800000000     0.860900000000     0          
H98      H      0.249200000000     0.894800000000     0.898800000000     0          
C99      C      0.318700000000     0.869600000000     0.842500000000     0          
C100     C      0.336400000000     0.835200000000     0.786900000000     0          
H101     H      0.376100000000     0.834000000000     0.774200000000     0          
C102     C      0.296600000000     0.802400000000     0.749300000000     0          
H103     H      0.309100000000     0.780400000000     0.709600000000     0          
C104     C      0.363000000000     0.903500000000     0.882700000000     0          
C105     C      0.162700000000     0.833200000000     0.856100000000     0          
C106     C      0.459310000000     0.530230000000     0.959900000000     0          
O107     O      0.107980000000     0.415650000000     0.367100000000     0          
O108     O      0.058900000000     0.344470000000     0.427550000000     0          
C109     C      0.198800000000     0.239200000000     0.268800000000     0          
C110     C      0.163300000000     0.221700000000     0.323700000000     0          
C111     C      0.129200000000     0.261800000000     0.360900000000     0          
H112     H      0.105200000000     0.249200000000     0.398800000000     0          
C113     C      0.130400000000     0.318700000000     0.342500000000     0          
C114     C      0.164800000000     0.336400000000     0.286900000000     0          
H115     H      0.166000000000     0.376100000000     0.274200000000     0          
C116     C      0.197600000000     0.296600000000     0.249300000000     0          
C117     C      0.096500000000     0.363000000000     0.382700000000     0          
F118     F      0.227400000000     0.293300000000     0.122000000000     0          
F119     F      0.219000000000     0.379800000000     0.168400000000     0          
F120     F      0.292700000000     0.324900000000     0.199900000000     0          
H121     H      0.161900000000     0.181900000000     0.336500000000     0          
C122     C      0.232000000000     0.320800000000     0.188900000000     0          
O123     O      0.892020000000     0.584350000000     0.367100000000     0          
O124     O      0.941100000000     0.655530000000     0.427550000000     0          
C125     C      0.801200000000     0.760800000000     0.268800000000     0          
C126     C      0.836700000000     0.778300000000     0.323700000000     0          
C127     C      0.870800000000     0.738200000000     0.360900000000     0          
H128     H      0.894800000000     0.750800000000     0.398800000000     0          
C129     C      0.869600000000     0.681300000000     0.342500000000     0          
C130     C      0.835200000000     0.663600000000     0.286900000000     0          
H131     H      0.834000000000     0.623900000000     0.274200000000     0          
C132     C      0.802400000000     0.703400000000     0.249300000000     0          
C133     C      0.903500000000     0.637000000000     0.382700000000     0          
C134     C      0.530230000000     0.540690000000     0.459900000000     0          
F135     F      0.772600000000     0.706700000000     0.122000000000     0          
F136     F      0.781000000000     0.620200000000     0.168400000000     0          
F137     F      0.707300000000     0.675100000000     0.199900000000     0          
H138     H      0.550300000000     0.568700000000     0.432400000000     0          
H139     H      0.838100000000     0.818100000000     0.336500000000     0          
C140     C      0.768000000000     0.679200000000     0.188900000000     0          
O141     O      0.584350000000     0.892020000000     0.867100000000     0          
O142     O      0.655530000000     0.941100000000     0.927550000000     0          
C143     C      0.760800000000     0.801200000000     0.768800000000     0          
C144     C      0.778300000000     0.836700000000     0.823700000000     0          
C145     C      0.738200000000     0.870800000000     0.860900000000     0          
H146     H      0.750800000000     0.894800000000     0.898800000000     0          
C147     C      0.681300000000     0.869600000000     0.842500000000     0          
C148     C      0.663600000000     0.835200000000     0.786900000000     0          
H149     H      0.623900000000     0.834000000000     0.774200000000     0          
C150     C      0.703400000000     0.802400000000     0.749300000000     0          
C151     C      0.637000000000     0.903500000000     0.882700000000     0          
F152     F      0.706700000000     0.772600000000     0.622000000000     0          
F153     F      0.620200000000     0.781000000000     0.668400000000     0          
F154     F      0.675100000000     0.707300000000     0.699900000000     0          
H155     H      0.818100000000     0.838100000000     0.836500000000     0          
C156     C      0.679200000000     0.768000000000     0.688900000000     0          
F157     F      0.149300000000     0.129000000000     0.913000000000     0          
F158     F      0.147800000000     0.221500000000     0.889000000000     0          
F159     F      0.115800000000     0.157500000000     0.809500000000     0          
O160     O      0.415650000000     0.107980000000     0.867100000000     0          
O161     O      0.344470000000     0.058900000000     0.927550000000     0          
C162     C      0.239200000000     0.198800000000     0.768800000000     0          
C163     C      0.221700000000     0.163300000000     0.823700000000     0          
C164     C      0.261800000000     0.129200000000     0.860900000000     0          
H165     H      0.249200000000     0.105200000000     0.898800000000     0          
C166     C      0.318700000000     0.130400000000     0.842500000000     0          
C167     C      0.336400000000     0.164800000000     0.786900000000     0          
H168     H      0.376100000000     0.166000000000     0.774200000000     0          
C169     C      0.296600000000     0.197600000000     0.749300000000     0          
H170     H      0.309100000000     0.219600000000     0.709600000000     0          
C171     C      0.363000000000     0.096500000000     0.882700000000     0          
C172     C      0.162700000000     0.166800000000     0.856100000000     0          
C173     C      0.459310000000     0.469770000000     0.959900000000     0          
H174     H      0.431300000000     0.449700000000     0.932400000000     0          
O175     O      0.107980000000     0.584350000000     0.367100000000     0          
O176     O      0.058900000000     0.655530000000     0.427550000000     0          
C177     C      0.198800000000     0.760800000000     0.268800000000     0          
C178     C      0.163300000000     0.778300000000     0.323700000000     0          
C179     C      0.129200000000     0.738200000000     0.360900000000     0          
H180     H      0.105200000000     0.750800000000     0.398800000000     0          
C181     C      0.130400000000     0.681300000000     0.342500000000     0          
C182     C      0.164800000000     0.663600000000     0.286900000000     0          
H183     H      0.166000000000     0.623900000000     0.274200000000     0          
C184     C      0.197600000000     0.703400000000     0.249300000000     0          
C185     C      0.096500000000     0.637000000000     0.382700000000     0          
C186     C      0.469770000000     0.540690000000     0.459900000000     0          
F187     F      0.227400000000     0.706700000000     0.122000000000     0          
F188     F      0.219000000000     0.620200000000     0.168400000000     0          
F189     F      0.292700000000     0.675100000000     0.199900000000     0          
H190     H      0.449700000000     0.568700000000     0.432400000000     0          
H191     H      0.161900000000     0.818100000000     0.336500000000     0          
C192     C      0.232000000000     0.679200000000     0.188900000000     0          
O193     O      0.892020000000     0.415650000000     0.367100000000     0          
O194     O      0.941100000000     0.344470000000     0.427550000000     0          
C195     C      0.801200000000     0.239200000000     0.268800000000     0          
C196     C      0.836700000000     0.221700000000     0.323700000000     0          
C197     C      0.870800000000     0.261800000000     0.360900000000     0          
H198     H      0.894800000000     0.249200000000     0.398800000000     0          
C199     C      0.869600000000     0.318700000000     0.342500000000     0          
C200     C      0.835200000000     0.336400000000     0.286900000000     0          
H201     H      0.834000000000     0.376100000000     0.274200000000     0          
C202     C      0.802400000000     0.296600000000     0.249300000000     0          
C203     C      0.903500000000     0.363000000000     0.382700000000     0          
F204     F      0.772600000000     0.293300000000     0.122000000000     0          
F205     F      0.781000000000     0.379800000000     0.168400000000     0          
F206     F      0.707300000000     0.324900000000     0.199900000000     0          
H207     H      0.838100000000     0.181900000000     0.336500000000     0          
C208     C      0.768000000000     0.320800000000     0.188900000000     0          
F209     F      0.149300000000     0.871000000000     0.087000000000     0          
F210     F      0.147800000000     0.778500000000     0.111000000000     0          
F211     F      0.115800000000     0.842500000000     0.190500000000     0          
O212     O      0.415650000000     0.892020000000     0.132900000000     0          
O213     O      0.344470000000     0.941100000000     0.072450000000     0          
C214     C      0.239200000000     0.801200000000     0.231200000000     0          
C215     C      0.221700000000     0.836700000000     0.176300000000     0          
C216     C      0.261800000000     0.870800000000     0.139100000000     0          
H217     H      0.249200000000     0.894800000000     0.101200000000     0          
C218     C      0.318700000000     0.869600000000     0.157500000000     0          
C219     C      0.336400000000     0.835200000000     0.213100000000     0          
H220     H      0.376100000000     0.834000000000     0.225800000000     0          
C221     C      0.296600000000     0.802400000000     0.250700000000     0          
H222     H      0.309100000000     0.780400000000     0.290400000000     0          
C223     C      0.363000000000     0.903500000000     0.117300000000     0          
C224     C      0.162700000000     0.833200000000     0.143900000000     0          
F225     F      0.850700000000     0.129000000000     0.087000000000     0          
F226     F      0.852200000000     0.221500000000     0.111000000000     0          
F227     F      0.884200000000     0.157500000000     0.190500000000     0          
O228     O      0.584350000000     0.107980000000     0.132900000000     0          
O229     O      0.655530000000     0.058900000000     0.072450000000     0          
C230     C      0.760800000000     0.198800000000     0.231200000000     0          
C231     C      0.778300000000     0.163300000000     0.176300000000     0          
C232     C      0.738200000000     0.129200000000     0.139100000000     0          
H233     H      0.750800000000     0.105200000000     0.101200000000     0          
C234     C      0.681300000000     0.130400000000     0.157500000000     0          
C235     C      0.663600000000     0.164800000000     0.213100000000     0          
H236     H      0.623900000000     0.166000000000     0.225800000000     0          
C237     C      0.703400000000     0.197600000000     0.250700000000     0          
H238     H      0.690900000000     0.219600000000     0.290400000000     0          
C239     C      0.637000000000     0.096500000000     0.117300000000     0          
C240     C      0.837300000000     0.166800000000     0.143900000000     0          
C241     C      0.540690000000     0.469770000000     0.040100000000     0          
H242     H      0.568700000000     0.449700000000     0.067600000000     0          
F243     F      0.871000000000     0.850700000000     0.587000000000     0          
F244     F      0.778500000000     0.852200000000     0.611000000000     0          
F245     F      0.842500000000     0.884200000000     0.690500000000     0          
O246     O      0.892020000000     0.584350000000     0.632900000000     0          
O247     O      0.941100000000     0.655530000000     0.572450000000     0          
C248     C      0.801200000000     0.760800000000     0.731200000000     0          
C249     C      0.836700000000     0.778300000000     0.676300000000     0          
C250     C      0.870800000000     0.738200000000     0.639100000000     0          
H251     H      0.894800000000     0.750800000000     0.601200000000     0          
C252     C      0.869600000000     0.681300000000     0.657500000000     0          
C253     C      0.835200000000     0.663600000000     0.713100000000     0          
H254     H      0.834000000000     0.623900000000     0.725800000000     0          
C255     C      0.802400000000     0.703400000000     0.750700000000     0          
H256     H      0.780400000000     0.690900000000     0.790400000000     0          
C257     C      0.903500000000     0.637000000000     0.617300000000     0          
C258     C      0.833200000000     0.837300000000     0.643900000000     0          
F259     F      0.129000000000     0.149300000000     0.587000000000     0          
F260     F      0.221500000000     0.147800000000     0.611000000000     0          
F261     F      0.157500000000     0.115800000000     0.690500000000     0          
O262     O      0.107980000000     0.415650000000     0.632900000000     0          
O263     O      0.058900000000     0.344470000000     0.572450000000     0          
C264     C      0.198800000000     0.239200000000     0.731200000000     0          
C265     C      0.163300000000     0.221700000000     0.676300000000     0          
C266     C      0.129200000000     0.261800000000     0.639100000000     0          
H267     H      0.105200000000     0.249200000000     0.601200000000     0          
C268     C      0.130400000000     0.318700000000     0.657500000000     0          
C269     C      0.164800000000     0.336400000000     0.713100000000     0          
H270     H      0.166000000000     0.376100000000     0.725800000000     0          
C271     C      0.197600000000     0.296600000000     0.750700000000     0          
H272     H      0.219600000000     0.309100000000     0.790400000000     0          
C273     C      0.096500000000     0.363000000000     0.617300000000     0          
C274     C      0.166800000000     0.162700000000     0.643900000000     0          
C275     C      0.469770000000     0.459310000000     0.540100000000     0          
H276     H      0.449700000000     0.431300000000     0.567600000000     0          
Zr277    Zr     0.500000000000     0.075520000000     0.092310000000     0          
O278     O      0.500000000000     0.053300000000     0.206500000000     0          
O279     O      0.500000000000     0.167900000000     0.061000000000     0          
N280     N      0.500000000000     0.894400000000     0.458600000000     0          
C281     C      0.500000000000     0.947710000000     0.349000000000     0          
H282     H      0.500000000000     0.912100000000     0.323800000000     0          
C283     C      0.500000000000     0.947810000000     0.422700000000     0          
C284     C      0.500000000000     0.284900000000     0.063900000000     0          
H285     H      0.500000000000     0.264200000000     0.107500000000     0          
C286     C      0.500000000000     0.345100000000     0.063900000000     0          
H287     H      0.500000000000     0.365700000000     0.107500000000     0          
H288     H      0.500000000000     0.861800000000     0.434400000000     0          
H289     H      0.500000000000     0.893500000000     0.505200000000     0          
Zr290    Zr     0.500000000000     0.924480000000     0.092310000000     0          
O291     O      0.500000000000     0.946700000000     0.206500000000     0          
O292     O      0.500000000000     0.832100000000     0.061000000000     0          
C293     C      0.500000000000     0.052290000000     0.349000000000     0          
H294     H      0.500000000000     0.087900000000     0.323800000000     0          
C295     C      0.500000000000     0.052190000000     0.422700000000     0          
C296     C      0.500000000000     0.715100000000     0.063900000000     0          
H297     H      0.500000000000     0.735800000000     0.107500000000     0          
C298     C      0.500000000000     0.654900000000     0.063900000000     0          
H299     H      0.500000000000     0.634300000000     0.107500000000     0          
H300     H      0.500000000000     0.087900000000     0.447800000000     0          
Zr301    Zr     0.924480000000     0.500000000000     0.592310000000     0          
O302     O      0.946700000000     0.500000000000     0.706500000000     0          
O303     O      0.832100000000     0.500000000000     0.561000000000     0          
C304     C      0.052290000000     0.500000000000     0.849000000000     0          
H305     H      0.087900000000     0.500000000000     0.823800000000     0          
C306     C      0.052190000000     0.500000000000     0.922700000000     0          
C307     C      0.715100000000     0.500000000000     0.563900000000     0          
H308     H      0.735800000000     0.500000000000     0.607500000000     0          
C309     C      0.654900000000     0.500000000000     0.563900000000     0          
H310     H      0.634300000000     0.500000000000     0.607500000000     0          
H311     H      0.087900000000     0.500000000000     0.947800000000     0          
Zr312    Zr     0.075520000000     0.500000000000     0.592310000000     0          
O313     O      0.053300000000     0.500000000000     0.706500000000     0          
O314     O      0.167900000000     0.500000000000     0.561000000000     0          
C315     C      0.947710000000     0.500000000000     0.849000000000     0          
H316     H      0.912100000000     0.500000000000     0.823800000000     0          
C317     C      0.947810000000     0.500000000000     0.922700000000     0          
C318     C      0.284900000000     0.500000000000     0.563900000000     0          
H319     H      0.264200000000     0.500000000000     0.607500000000     0          
C320     C      0.345100000000     0.500000000000     0.563900000000     0          
H321     H      0.365700000000     0.500000000000     0.607500000000     0          
H322     H      0.912100000000     0.500000000000     0.947800000000     0          
Zr323    Zr     0.500000000000     0.075520000000     0.907690000000     0          
O324     O      0.500000000000     0.053300000000     0.793500000000     0          
O325     O      0.500000000000     0.167900000000     0.939000000000     0          
C326     C      0.500000000000     0.947710000000     0.651000000000     0          
H327     H      0.500000000000     0.912100000000     0.676200000000     0          
C328     C      0.500000000000     0.947810000000     0.577300000000     0          
C329     C      0.500000000000     0.284900000000     0.936100000000     0          
H330     H      0.500000000000     0.264200000000     0.892500000000     0          
C331     C      0.500000000000     0.345100000000     0.936100000000     0          
H332     H      0.500000000000     0.365700000000     0.892500000000     0          
H333     H      0.500000000000     0.912100000000     0.552200000000     0          
Zr334    Zr     0.500000000000     0.924480000000     0.907690000000     0          
O335     O      0.500000000000     0.946700000000     0.793500000000     0          
O336     O      0.500000000000     0.832100000000     0.939000000000     0          
C337     C      0.500000000000     0.052290000000     0.651000000000     0          
H338     H      0.500000000000     0.087900000000     0.676200000000     0          
C339     C      0.500000000000     0.052190000000     0.577300000000     0          
C340     C      0.500000000000     0.715100000000     0.936100000000     0          
H341     H      0.500000000000     0.735800000000     0.892500000000     0          
C342     C      0.500000000000     0.654900000000     0.936100000000     0          
H343     H      0.500000000000     0.634300000000     0.892500000000     0          
H344     H      0.500000000000     0.087900000000     0.552200000000     0          
Zr345    Zr     0.075520000000     0.500000000000     0.407690000000     0          
O346     O      0.053300000000     0.500000000000     0.293500000000     0          
O347     O      0.167900000000     0.500000000000     0.439000000000     0          
C348     C      0.947710000000     0.500000000000     0.151000000000     0          
H349     H      0.912100000000     0.500000000000     0.176200000000     0          
C350     C      0.947810000000     0.500000000000     0.077300000000     0          
C351     C      0.284900000000     0.500000000000     0.436100000000     0          
H352     H      0.264200000000     0.500000000000     0.392500000000     0          
C353     C      0.345100000000     0.500000000000     0.436100000000     0          
H354     H      0.365700000000     0.500000000000     0.392500000000     0          
H355     H      0.912100000000     0.500000000000     0.052200000000     0          
Zr356    Zr     0.924480000000     0.500000000000     0.407690000000     0          
O357     O      0.946700000000     0.500000000000     0.293500000000     0          
O358     O      0.832100000000     0.500000000000     0.439000000000     0          
N359     N      0.105600000000     0.500000000000     0.041400000000     0          
C360     C      0.052290000000     0.500000000000     0.151000000000     0          
H361     H      0.087900000000     0.500000000000     0.176200000000     0          
C362     C      0.052190000000     0.500000000000     0.077300000000     0          
C363     C      0.715100000000     0.500000000000     0.436100000000     0          
H364     H      0.735800000000     0.500000000000     0.392500000000     0          
C365     C      0.654900000000     0.500000000000     0.436100000000     0          
H366     H      0.634300000000     0.500000000000     0.392500000000     0          
H367     H      0.138200000000     0.500000000000     0.065600000000     0          
H368     H      0.106500000000     0.500000000000     0.994800000000     0          
Zr369    Zr     0.392320000000     0.000000000000     0.000000000000     0          
Zr370    Zr     0.607680000000     0.000000000000     0.000000000000     0          
Zr371    Zr     0.000000000000     0.392320000000     0.500000000000     0          
Zr372    Zr     0.000000000000     0.607680000000     0.500000000000     0          
O373     O      0.446100000000     0.075000000000     0.000000000000     0          
O374     O      0.553900000000     0.925000000000     0.000000000000     0          
O375     O      0.925000000000     0.446100000000     0.500000000000     0          
O376     O      0.075000000000     0.553900000000     0.500000000000     0          
O377     O      0.553900000000     0.075000000000     0.000000000000     0          
O378     O      0.446100000000     0.925000000000     0.000000000000     0          
O379     O      0.075000000000     0.446100000000     0.500000000000     0          
O380     O      0.925000000000     0.553900000000     0.500000000000     0          
O381     O      0.446200000000     0.000000000000     0.092000000000     0          
O382     O      0.553800000000     0.000000000000     0.092000000000     0          
O383     O      0.000000000000     0.446200000000     0.592000000000     0          
O384     O      0.000000000000     0.553800000000     0.592000000000     0          
O385     O      0.553800000000     0.000000000000     0.908000000000     0          
O386     O      0.446200000000     0.000000000000     0.908000000000     0          
O387     O      0.000000000000     0.446200000000     0.408000000000     0          
O388     O      0.000000000000     0.553800000000     0.408000000000     0          
C389     C      0.500000000000     0.000000000000     0.235100000000     0          
C390     C      0.500000000000     0.000000000000     0.312400000000     0          
C391     C      0.500000000000     0.000000000000     0.460200000000     0          
C392     C      0.000000000000     0.500000000000     0.735100000000     0          
C393     C      0.000000000000     0.500000000000     0.812400000000     0          
C394     C      0.000000000000     0.500000000000     0.960200000000     0          
C395     C      0.500000000000     0.000000000000     0.764900000000     0          
C396     C      0.500000000000     0.000000000000     0.687600000000     0          
C397     C      0.500000000000     0.000000000000     0.539800000000     0          
C398     C      0.000000000000     0.500000000000     0.264900000000     0          
C399     C      0.000000000000     0.500000000000     0.187600000000     0          
C400     C      0.000000000000     0.500000000000     0.039800000000     0          
C401     C      0.500000000000     0.190500000000     0.000000000000     0          
C402     C      0.500000000000     0.255000000000     0.000000000000     0          
C403     C      0.500000000000     0.375200000000     0.000000000000     0          
C404     C      0.500000000000     0.439720000000     0.000000000000     0          
C405     C      0.500000000000     0.809500000000     0.000000000000     0          
C406     C      0.500000000000     0.745000000000     0.000000000000     0          
C407     C      0.500000000000     0.624800000000     0.000000000000     0          
C408     C      0.500000000000     0.560280000000     0.000000000000     0          
C409     C      0.809500000000     0.500000000000     0.500000000000     0          
C410     C      0.745000000000     0.500000000000     0.500000000000     0          
C411     C      0.624800000000     0.500000000000     0.500000000000     0          
C412     C      0.560280000000     0.500000000000     0.500000000000     0          
C413     C      0.190500000000     0.500000000000     0.500000000000     0          
C414     C      0.255000000000     0.500000000000     0.500000000000     0          
C415     C      0.375200000000     0.500000000000     0.500000000000     0          
C416     C      0.439720000000     0.500000000000     0.500000000000     0          


