data_NEJPEA

_audit_creation_method RASPA-1.0
_audit_creation_date 2020-11-2
_audit_author_name 'Rocio Bueno-Perez'

_cell_length_a    23.1172
_cell_length_b    23.1172
_cell_length_c    18.7584
_cell_angle_alpha 90
_cell_angle_beta  90
_cell_angle_gamma 90
_cell_volume      10024.6

_symmetry_cell_setting          triclinic
_symmetry_space_group_name_Hall 'P 1'
_symmetry_space_group_name_H-M  'P 1'
_symmetry_Int_Tables_number     1

_symmetry_equiv_pos_as_xyz 'x,y,z'

loop_
_atom_site_label
_atom_site_type_symbol
_atom_site_fract_x
_atom_site_fract_y
_atom_site_fract_z
_atom_site_charge
O1       O      0.390100000000     0.083400000000     0.135400000000     0          
O2       O      0.441000000000     0.156500000000     0.072100000000     0          
N3       N      0.543700000000     0.972300000000     0.422700000000     0          
C4       C      0.297700000000     0.262900000000     0.221500000000     0          
C5       C      0.333800000000     0.278200000000     0.169400000000     0          
C6       C      0.369800000000     0.238300000000     0.137400000000     0          
H7       H      0.395200000000     0.250400000000     0.100600000000     0          
C8       C      0.369400000000     0.180700000000     0.158100000000     0          
C9       C      0.332800000000     0.164700000000     0.212300000000     0          
H10      H      0.331100000000     0.125700000000     0.228200000000     0          
C11      C      0.298900000000     0.206000000000     0.242700000000     0          
C12      C      0.402400000000     0.136900000000     0.117300000000     0          
C13      C      0.544000000000     0.972200000000     0.348800000000     0          
H14      H      0.574100000000     0.953300000000     0.323500000000     0          
C15      C      0.455700000000     0.027600000000     0.423200000000     0          
Cl16     Cl     0.653800000000     0.902700000000     0.413300000000     0          
H17      H      0.425500000000     0.046400000000     0.448600000000     0          
F18      F      0.253400000000     0.231300000000     0.359100000000     0          
F19      F      0.262700000000     0.127400000000     0.318200000000     0          
C20      C      0.256300000000     0.190000000000     0.299100000000     0          
H21      H      0.334700000000     0.317400000000     0.153900000000     0          
O22      O      0.609900000000     0.916600000000     0.135400000000     0          
O23      O      0.559000000000     0.843500000000     0.072100000000     0          
C24      C      0.702300000000     0.737100000000     0.221500000000     0          
C25      C      0.666200000000     0.721800000000     0.169400000000     0          
C26      C      0.630200000000     0.761700000000     0.137400000000     0          
H27      H      0.604800000000     0.749600000000     0.100600000000     0          
C28      C      0.630600000000     0.819300000000     0.158100000000     0          
C29      C      0.667200000000     0.835300000000     0.212300000000     0          
H30      H      0.668900000000     0.874300000000     0.228200000000     0          
C31      C      0.701100000000     0.794000000000     0.242700000000     0          
C32      C      0.597600000000     0.863100000000     0.117300000000     0          
C33      C      0.456000000000     0.027800000000     0.348800000000     0          
H34      H      0.425900000000     0.046700000000     0.323500000000     0          
H35      H      0.725500000000     0.805200000000     0.281000000000     0          
C36      C      0.664800000000     0.660300000000     0.144100000000     0          
F37      F      0.725700000000     0.651800000000     0.108100000000     0          
F38      F      0.656600000000     0.618700000000     0.204300000000     0          
F39      F      0.619000000000     0.651000000000     0.087900000000     0          
O40      O      0.916600000000     0.390100000000     0.635400000000     0          
O41      O      0.843500000000     0.441000000000     0.572100000000     0          
N42      N      0.027700000000     0.543700000000     0.922700000000     0          
C43      C      0.737100000000     0.297700000000     0.721500000000     0          
C44      C      0.721800000000     0.333800000000     0.669400000000     0          
C45      C      0.761700000000     0.369800000000     0.637400000000     0          
H46      H      0.749600000000     0.395200000000     0.600600000000     0          
C47      C      0.819300000000     0.369400000000     0.658100000000     0          
C48      C      0.835300000000     0.332800000000     0.712300000000     0          
H49      H      0.874300000000     0.331100000000     0.728200000000     0          
C50      C      0.794000000000     0.298900000000     0.742700000000     0          
C51      C      0.863100000000     0.402400000000     0.617300000000     0          
C52      C      0.027800000000     0.544000000000     0.848800000000     0          
H53      H      0.046700000000     0.574100000000     0.823500000000     0          
C54      C      0.972400000000     0.455700000000     0.923200000000     0          
Cl55     Cl     0.097300000000     0.653800000000     0.913300000000     0          
H56      H      0.805200000000     0.274500000000     0.781000000000     0          
C57      C      0.660300000000     0.335200000000     0.644100000000     0          
F58      F      0.651800000000     0.274300000000     0.608100000000     0          
F59      F      0.618700000000     0.343400000000     0.704300000000     0          
F60      F      0.651000000000     0.381000000000     0.587900000000     0          
H61      H      0.953600000000     0.425500000000     0.948600000000     0          
O62      O      0.083400000000     0.609900000000     0.635400000000     0          
O63      O      0.156500000000     0.559000000000     0.572100000000     0          
C64      C      0.262900000000     0.702300000000     0.721500000000     0          
C65      C      0.278200000000     0.666200000000     0.669400000000     0          
C66      C      0.238300000000     0.630200000000     0.637400000000     0          
H67      H      0.250400000000     0.604800000000     0.600600000000     0          
C68      C      0.180700000000     0.630600000000     0.658100000000     0          
C69      C      0.164700000000     0.667200000000     0.712300000000     0          
H70      H      0.125700000000     0.668900000000     0.728200000000     0          
C71      C      0.206000000000     0.701100000000     0.742700000000     0          
C72      C      0.136900000000     0.597600000000     0.617300000000     0          
C73      C      0.972200000000     0.456000000000     0.848800000000     0          
H74      H      0.953300000000     0.425900000000     0.823500000000     0          
H75      H      0.194800000000     0.725500000000     0.781000000000     0          
C76      C      0.339700000000     0.664800000000     0.644100000000     0          
F77      F      0.348200000000     0.725700000000     0.608100000000     0          
F78      F      0.381300000000     0.656600000000     0.704300000000     0          
F79      F      0.349000000000     0.619000000000     0.587900000000     0          
O80      O      0.609900000000     0.083400000000     0.864600000000     0          
O81      O      0.559000000000     0.156500000000     0.927900000000     0          
C82      C      0.702300000000     0.262900000000     0.778500000000     0          
C83      C      0.666200000000     0.278200000000     0.830600000000     0          
C84      C      0.630200000000     0.238300000000     0.862600000000     0          
H85      H      0.604800000000     0.250400000000     0.899400000000     0          
C86      C      0.630600000000     0.180700000000     0.841900000000     0          
C87      C      0.667200000000     0.164700000000     0.787700000000     0          
H88      H      0.668900000000     0.125700000000     0.771800000000     0          
C89      C      0.701100000000     0.206000000000     0.757300000000     0          
C90      C      0.597600000000     0.136900000000     0.882700000000     0          
F91      F      0.746600000000     0.231300000000     0.640900000000     0          
F92      F      0.737300000000     0.127400000000     0.681800000000     0          
C93      C      0.743700000000     0.190000000000     0.700900000000     0          
H94      H      0.665300000000     0.317400000000     0.846100000000     0          
O95      O      0.390100000000     0.916600000000     0.864600000000     0          
O96      O      0.441000000000     0.843500000000     0.927900000000     0          
C97      C      0.297700000000     0.737100000000     0.778500000000     0          
C98      C      0.333800000000     0.721800000000     0.830600000000     0          
C99      C      0.369800000000     0.761700000000     0.862600000000     0          
H100     H      0.395200000000     0.749600000000     0.899400000000     0          
C101     C      0.369400000000     0.819300000000     0.841900000000     0          
C102     C      0.332800000000     0.835300000000     0.787700000000     0          
H103     H      0.331100000000     0.874300000000     0.771800000000     0          
C104     C      0.298900000000     0.794000000000     0.757300000000     0          
C105     C      0.402400000000     0.863100000000     0.882700000000     0          
H106     H      0.052300000000     0.869300000000     0.042700000000     0          
F107     F      0.253400000000     0.768700000000     0.640900000000     0          
F108     F      0.262700000000     0.872600000000     0.681800000000     0          
C109     C      0.256300000000     0.810000000000     0.700900000000     0          
H110     H      0.334700000000     0.682600000000     0.846100000000     0          
O111     O      0.083400000000     0.390100000000     0.364600000000     0          
O112     O      0.156500000000     0.441000000000     0.427900000000     0          
C113     C      0.262900000000     0.297700000000     0.278500000000     0          
C114     C      0.278200000000     0.333800000000     0.330600000000     0          
C115     C      0.238300000000     0.369800000000     0.362600000000     0          
H116     H      0.250400000000     0.395200000000     0.399400000000     0          
C117     C      0.180700000000     0.369400000000     0.341900000000     0          
C118     C      0.164700000000     0.332800000000     0.287700000000     0          
H119     H      0.125700000000     0.331100000000     0.271800000000     0          
C120     C      0.206000000000     0.298900000000     0.257300000000     0          
C121     C      0.136900000000     0.402400000000     0.382700000000     0          
H122     H      0.194800000000     0.274500000000     0.219000000000     0          
C123     C      0.339700000000     0.335200000000     0.355900000000     0          
F124     F      0.348200000000     0.274300000000     0.391900000000     0          
F125     F      0.381300000000     0.343400000000     0.295700000000     0          
F126     F      0.349000000000     0.381000000000     0.412100000000     0          
O127     O      0.916600000000     0.609900000000     0.364600000000     0          
O128     O      0.843500000000     0.559000000000     0.427900000000     0          
C129     C      0.737100000000     0.702300000000     0.278500000000     0          
C130     C      0.721800000000     0.666200000000     0.330600000000     0          
C131     C      0.761700000000     0.630200000000     0.362600000000     0          
H132     H      0.749600000000     0.604800000000     0.399400000000     0          
C133     C      0.819300000000     0.630600000000     0.341900000000     0          
C134     C      0.835300000000     0.667200000000     0.287700000000     0          
H135     H      0.874300000000     0.668900000000     0.271800000000     0          
C136     C      0.794000000000     0.701100000000     0.257300000000     0          
C137     C      0.863100000000     0.597600000000     0.382700000000     0          
H138     H      0.869300000000     0.947700000000     0.542700000000     0          
F139     F      0.768700000000     0.746600000000     0.140900000000     0          
F140     F      0.872600000000     0.737300000000     0.181800000000     0          
C141     C      0.810000000000     0.743700000000     0.200900000000     0          
H142     H      0.682600000000     0.665300000000     0.346100000000     0          
O143     O      0.609900000000     0.916600000000     0.864600000000     0          
O144     O      0.559000000000     0.843500000000     0.927900000000     0          
C145     C      0.702300000000     0.737100000000     0.778500000000     0          
C146     C      0.666200000000     0.721800000000     0.830600000000     0          
C147     C      0.630200000000     0.761700000000     0.862600000000     0          
H148     H      0.604800000000     0.749600000000     0.899400000000     0          
C149     C      0.630600000000     0.819300000000     0.841900000000     0          
C150     C      0.667200000000     0.835300000000     0.787700000000     0          
H151     H      0.668900000000     0.874300000000     0.771800000000     0          
C152     C      0.701100000000     0.794000000000     0.757300000000     0          
C153     C      0.597600000000     0.863100000000     0.882700000000     0          
C154     C      0.456000000000     0.027800000000     0.651200000000     0          
H155     H      0.425900000000     0.046700000000     0.676500000000     0          
H156     H      0.725500000000     0.805200000000     0.719000000000     0          
C157     C      0.664800000000     0.660300000000     0.855900000000     0          
F158     F      0.725700000000     0.651800000000     0.891900000000     0          
F159     F      0.656600000000     0.618700000000     0.795700000000     0          
F160     F      0.619000000000     0.651000000000     0.912100000000     0          
O161     O      0.390100000000     0.083400000000     0.864600000000     0          
O162     O      0.441000000000     0.156500000000     0.927900000000     0          
N163     N      0.543700000000     0.972300000000     0.577300000000     0          
C164     C      0.297700000000     0.262900000000     0.778500000000     0          
C165     C      0.333800000000     0.278200000000     0.830600000000     0          
C166     C      0.369800000000     0.238300000000     0.862600000000     0          
H167     H      0.395200000000     0.250400000000     0.899400000000     0          
C168     C      0.369400000000     0.180700000000     0.841900000000     0          
C169     C      0.332800000000     0.164700000000     0.787700000000     0          
H170     H      0.331100000000     0.125700000000     0.771800000000     0          
C171     C      0.298900000000     0.206000000000     0.757300000000     0          
C172     C      0.402400000000     0.136900000000     0.882700000000     0          
C173     C      0.544000000000     0.972200000000     0.651200000000     0          
H174     H      0.574100000000     0.953300000000     0.676500000000     0          
C175     C      0.455700000000     0.027600000000     0.576800000000     0          
Cl176    Cl     0.653800000000     0.902700000000     0.586700000000     0          
H177     H      0.274500000000     0.194800000000     0.719000000000     0          
C178     C      0.335200000000     0.339700000000     0.855900000000     0          
F179     F      0.274300000000     0.348200000000     0.891900000000     0          
F180     F      0.343400000000     0.381300000000     0.795700000000     0          
F181     F      0.381000000000     0.349000000000     0.912100000000     0          
H182     H      0.425500000000     0.046400000000     0.551400000000     0          
O183     O      0.083400000000     0.609900000000     0.364600000000     0          
O184     O      0.156500000000     0.559000000000     0.427900000000     0          
C185     C      0.262900000000     0.702300000000     0.278500000000     0          
C186     C      0.278200000000     0.666200000000     0.330600000000     0          
C187     C      0.238300000000     0.630200000000     0.362600000000     0          
H188     H      0.250400000000     0.604800000000     0.399400000000     0          
C189     C      0.180700000000     0.630600000000     0.341900000000     0          
C190     C      0.164700000000     0.667200000000     0.287700000000     0          
H191     H      0.125700000000     0.668900000000     0.271800000000     0          
C192     C      0.206000000000     0.701100000000     0.257300000000     0          
C193     C      0.136900000000     0.597600000000     0.382700000000     0          
C194     C      0.972200000000     0.456000000000     0.151200000000     0          
H195     H      0.953300000000     0.425900000000     0.176500000000     0          
H196     H      0.194800000000     0.725500000000     0.219000000000     0          
C197     C      0.339700000000     0.664800000000     0.355900000000     0          
F198     F      0.348200000000     0.725700000000     0.391900000000     0          
F199     F      0.381300000000     0.656600000000     0.295700000000     0          
F200     F      0.349000000000     0.619000000000     0.412100000000     0          
O201     O      0.916600000000     0.390100000000     0.364600000000     0          
O202     O      0.843500000000     0.441000000000     0.427900000000     0          
N203     N      0.027700000000     0.543700000000     0.077300000000     0          
C204     C      0.737100000000     0.297700000000     0.278500000000     0          
C205     C      0.721800000000     0.333800000000     0.330600000000     0          
C206     C      0.761700000000     0.369800000000     0.362600000000     0          
H207     H      0.749600000000     0.395200000000     0.399400000000     0          
C208     C      0.819300000000     0.369400000000     0.341900000000     0          
C209     C      0.835300000000     0.332800000000     0.287700000000     0          
H210     H      0.874300000000     0.331100000000     0.271800000000     0          
C211     C      0.794000000000     0.298900000000     0.257300000000     0          
C212     C      0.863100000000     0.402400000000     0.382700000000     0          
C213     C      0.027800000000     0.544000000000     0.151200000000     0          
H214     H      0.046700000000     0.574100000000     0.176500000000     0          
C215     C      0.972400000000     0.455700000000     0.076800000000     0          
Cl216    Cl     0.097300000000     0.653800000000     0.086700000000     0          
H217     H      0.805200000000     0.274500000000     0.219000000000     0          
C218     C      0.660300000000     0.335200000000     0.355900000000     0          
F219     F      0.651800000000     0.274300000000     0.391900000000     0          
F220     F      0.618700000000     0.343400000000     0.295700000000     0          
F221     F      0.651000000000     0.381000000000     0.412100000000     0          
H222     H      0.953600000000     0.425500000000     0.051400000000     0          
O223     O      0.390100000000     0.916600000000     0.135400000000     0          
O224     O      0.441000000000     0.843500000000     0.072100000000     0          
C225     C      0.297700000000     0.737100000000     0.221500000000     0          
C226     C      0.333800000000     0.721800000000     0.169400000000     0          
C227     C      0.369800000000     0.761700000000     0.137400000000     0          
H228     H      0.395200000000     0.749600000000     0.100600000000     0          
C229     C      0.369400000000     0.819300000000     0.158100000000     0          
C230     C      0.332800000000     0.835300000000     0.212300000000     0          
H231     H      0.331100000000     0.874300000000     0.228200000000     0          
C232     C      0.298900000000     0.794000000000     0.242700000000     0          
C233     C      0.402400000000     0.863100000000     0.117300000000     0          
H234     H      0.052300000000     0.869300000000     0.957300000000     0          
F235     F      0.253400000000     0.768700000000     0.359100000000     0          
F236     F      0.262700000000     0.872600000000     0.318200000000     0          
C237     C      0.256300000000     0.810000000000     0.299100000000     0          
H238     H      0.334700000000     0.682600000000     0.153900000000     0          
O239     O      0.609900000000     0.083400000000     0.135400000000     0          
O240     O      0.559000000000     0.156500000000     0.072100000000     0          
C241     C      0.702300000000     0.262900000000     0.221500000000     0          
C242     C      0.666200000000     0.278200000000     0.169400000000     0          
C243     C      0.630200000000     0.238300000000     0.137400000000     0          
H244     H      0.604800000000     0.250400000000     0.100600000000     0          
C245     C      0.630600000000     0.180700000000     0.158100000000     0          
C246     C      0.667200000000     0.164700000000     0.212300000000     0          
H247     H      0.668900000000     0.125700000000     0.228200000000     0          
C248     C      0.701100000000     0.206000000000     0.242700000000     0          
C249     C      0.597600000000     0.136900000000     0.117300000000     0          
F250     F      0.746600000000     0.231300000000     0.359100000000     0          
F251     F      0.737300000000     0.127400000000     0.318200000000     0          
C252     C      0.743700000000     0.190000000000     0.299100000000     0          
H253     H      0.665300000000     0.317400000000     0.153900000000     0          
O254     O      0.916600000000     0.609900000000     0.635400000000     0          
O255     O      0.843500000000     0.559000000000     0.572100000000     0          
C256     C      0.737100000000     0.702300000000     0.721500000000     0          
C257     C      0.721800000000     0.666200000000     0.669400000000     0          
C258     C      0.761700000000     0.630200000000     0.637400000000     0          
H259     H      0.749600000000     0.604800000000     0.600600000000     0          
C260     C      0.819300000000     0.630600000000     0.658100000000     0          
C261     C      0.835300000000     0.667200000000     0.712300000000     0          
H262     H      0.874300000000     0.668900000000     0.728200000000     0          
C263     C      0.794000000000     0.701100000000     0.742700000000     0          
C264     C      0.863100000000     0.597600000000     0.617300000000     0          
H265     H      0.869300000000     0.947700000000     0.457300000000     0          
F266     F      0.768700000000     0.746600000000     0.859100000000     0          
F267     F      0.872600000000     0.737300000000     0.818200000000     0          
C268     C      0.810000000000     0.743700000000     0.799100000000     0          
H269     H      0.682600000000     0.665300000000     0.653900000000     0          
O270     O      0.083400000000     0.390100000000     0.635400000000     0          
O271     O      0.156500000000     0.441000000000     0.572100000000     0          
C272     C      0.262900000000     0.297700000000     0.721500000000     0          
C273     C      0.278200000000     0.333800000000     0.669400000000     0          
C274     C      0.238300000000     0.369800000000     0.637400000000     0          
H275     H      0.250400000000     0.395200000000     0.600600000000     0          
C276     C      0.180700000000     0.369400000000     0.658100000000     0          
C277     C      0.164700000000     0.332800000000     0.712300000000     0          
H278     H      0.125700000000     0.331100000000     0.728200000000     0          
C279     C      0.206000000000     0.298900000000     0.742700000000     0          
C280     C      0.136900000000     0.402400000000     0.617300000000     0          
F281     F      0.231300000000     0.253400000000     0.859100000000     0          
F282     F      0.127400000000     0.262700000000     0.818200000000     0          
C283     C      0.190000000000     0.256300000000     0.799100000000     0          
H284     H      0.317400000000     0.334700000000     0.653900000000     0          
Zr285    Zr     0.500000000000     0.107660000000     0.000000000000     0          
Zr286    Zr     0.500000000000     0.892340000000     0.000000000000     0          
Zr287    Zr     0.892340000000     0.500000000000     0.500000000000     0          
Zr288    Zr     0.107660000000     0.500000000000     0.500000000000     0          
Zr289    Zr     0.424440000000     0.000000000000     0.092770000000     0          
O290     O      0.446100000000     0.000000000000     0.207900000000     0          
O291     O      0.332800000000     0.000000000000     0.061300000000     0          
C292     C      0.214900000000     0.000000000000     0.064200000000     0          
H293     H      0.235500000000     0.000000000000     0.108000000000     0          
C294     C      0.154700000000     0.000000000000     0.064300000000     0          
H295     H      0.134200000000     0.000000000000     0.108200000000     0          
Zr296    Zr     0.575560000000     0.000000000000     0.092770000000     0          
O297     O      0.553900000000     0.000000000000     0.207900000000     0          
O298     O      0.667200000000     0.000000000000     0.061300000000     0          
C299     C      0.785100000000     0.000000000000     0.064200000000     0          
H300     H      0.764500000000     0.000000000000     0.108000000000     0          
C301     C      0.845300000000     0.000000000000     0.064300000000     0          
H302     H      0.865800000000     0.000000000000     0.108200000000     0          
Zr303    Zr     0.000000000000     0.424440000000     0.592770000000     0          
O304     O      0.000000000000     0.446100000000     0.707900000000     0          
O305     O      0.000000000000     0.332800000000     0.561300000000     0          
C306     C      0.000000000000     0.214900000000     0.564200000000     0          
H307     H      0.000000000000     0.235500000000     0.608000000000     0          
C308     C      0.000000000000     0.154700000000     0.564300000000     0          
H309     H      0.000000000000     0.134200000000     0.608200000000     0          
Zr310    Zr     0.000000000000     0.575560000000     0.592770000000     0          
O311     O      0.000000000000     0.553900000000     0.707900000000     0          
O312     O      0.000000000000     0.667200000000     0.561300000000     0          
C313     C      0.000000000000     0.785100000000     0.564200000000     0          
H314     H      0.000000000000     0.764500000000     0.608000000000     0          
C315     C      0.000000000000     0.845300000000     0.564300000000     0          
H316     H      0.000000000000     0.865800000000     0.608200000000     0          
Zr317    Zr     0.575560000000     0.000000000000     0.907230000000     0          
O318     O      0.553900000000     0.000000000000     0.792100000000     0          
O319     O      0.667200000000     0.000000000000     0.938700000000     0          
C320     C      0.785100000000     0.000000000000     0.935800000000     0          
H321     H      0.764500000000     0.000000000000     0.892000000000     0          
C322     C      0.845300000000     0.000000000000     0.935700000000     0          
H323     H      0.865800000000     0.000000000000     0.891800000000     0          
Zr324    Zr     0.424440000000     0.000000000000     0.907230000000     0          
O325     O      0.446100000000     0.000000000000     0.792100000000     0          
O326     O      0.332800000000     0.000000000000     0.938700000000     0          
C327     C      0.214900000000     0.000000000000     0.935800000000     0          
H328     H      0.235500000000     0.000000000000     0.892000000000     0          
C329     C      0.154700000000     0.000000000000     0.935700000000     0          
H330     H      0.134200000000     0.000000000000     0.891800000000     0          
Zr331    Zr     0.000000000000     0.424440000000     0.407230000000     0          
O332     O      0.000000000000     0.446100000000     0.292100000000     0          
O333     O      0.000000000000     0.332800000000     0.438700000000     0          
C334     C      0.000000000000     0.214900000000     0.435800000000     0          
H335     H      0.000000000000     0.235500000000     0.392000000000     0          
C336     C      0.000000000000     0.154700000000     0.435700000000     0          
H337     H      0.000000000000     0.134200000000     0.391800000000     0          
Zr338    Zr     0.000000000000     0.575560000000     0.407230000000     0          
O339     O      0.000000000000     0.553900000000     0.292100000000     0          
O340     O      0.000000000000     0.667200000000     0.438700000000     0          
C341     C      0.000000000000     0.785100000000     0.435800000000     0          
H342     H      0.000000000000     0.764500000000     0.392000000000     0          
C343     C      0.000000000000     0.845300000000     0.435700000000     0          
H344     H      0.000000000000     0.865800000000     0.391800000000     0          
O345     O      0.500000000000     0.052600000000     0.090800000000     0          
O346     O      0.500000000000     0.947400000000     0.090800000000     0          
O347     O      0.947400000000     0.500000000000     0.590800000000     0          
O348     O      0.052600000000     0.500000000000     0.590800000000     0          
O349     O      0.500000000000     0.052600000000     0.909200000000     0          
O350     O      0.500000000000     0.947400000000     0.909200000000     0          
O351     O      0.052600000000     0.500000000000     0.409200000000     0          
O352     O      0.947400000000     0.500000000000     0.409200000000     0          
O353     O      0.425500000000     0.053800000000     0.000000000000     0          
C354     C      0.030040000000     0.052160000000     0.000000000000     0          
H355     H      0.050600000000     0.087800000000     0.000000000000     0          
O356     O      0.574500000000     0.946200000000     0.000000000000     0          
C357     C      0.969960000000     0.947840000000     0.000000000000     0          
H358     H      0.949400000000     0.912200000000     0.000000000000     0          
O359     O      0.946200000000     0.425500000000     0.500000000000     0          
C360     C      0.947840000000     0.030040000000     0.500000000000     0          
H361     H      0.912200000000     0.050600000000     0.500000000000     0          
O362     O      0.053800000000     0.574500000000     0.500000000000     0          
C363     C      0.052160000000     0.969960000000     0.500000000000     0          
H364     H      0.087800000000     0.949400000000     0.500000000000     0          
O365     O      0.574500000000     0.053800000000     0.000000000000     0          
C366     C      0.969960000000     0.052160000000     0.000000000000     0          
H367     H      0.949400000000     0.087800000000     0.000000000000     0          
O368     O      0.425500000000     0.946200000000     0.000000000000     0          
C369     C      0.030040000000     0.947840000000     0.000000000000     0          
C370     C      0.062600000000     0.891500000000     0.000000000000     0          
H371     H      0.104300000000     0.899200000000     0.000000000000     0          
O372     O      0.053800000000     0.425500000000     0.500000000000     0          
C373     C      0.052160000000     0.030040000000     0.500000000000     0          
H374     H      0.087800000000     0.050600000000     0.500000000000     0          
O375     O      0.946200000000     0.574500000000     0.500000000000     0          
C376     C      0.947840000000     0.969960000000     0.500000000000     0          
C377     C      0.891500000000     0.937400000000     0.500000000000     0          
H378     H      0.899200000000     0.895700000000     0.500000000000     0          
C379     C      0.500000000000     0.000000000000     0.233200000000     0          
C380     C      0.500000000000     0.000000000000     0.312100000000     0          
C381     C      0.500000000000     0.000000000000     0.460100000000     0          
C382     C      0.000000000000     0.500000000000     0.733200000000     0          
C383     C      0.000000000000     0.500000000000     0.812100000000     0          
C384     C      0.000000000000     0.500000000000     0.960100000000     0          
C385     C      0.500000000000     0.000000000000     0.766800000000     0          
C386     C      0.500000000000     0.000000000000     0.687900000000     0          
C387     C      0.500000000000     0.000000000000     0.539900000000     0          
C388     C      0.000000000000     0.500000000000     0.266800000000     0          
C389     C      0.000000000000     0.500000000000     0.187900000000     0          
C390     C      0.000000000000     0.500000000000     0.039900000000     0          
C391     C      0.309200000000     0.000000000000     0.000000000000     0          
C392     C      0.244700000000     0.000000000000     0.000000000000     0          
C393     C      0.124600000000     0.000000000000     0.000000000000     0          
C394     C      0.060270000000     0.000000000000     0.000000000000     0          
C395     C      0.690800000000     0.000000000000     0.000000000000     0          
C396     C      0.755300000000     0.000000000000     0.000000000000     0          
C397     C      0.875400000000     0.000000000000     0.000000000000     0          
C398     C      0.939730000000     0.000000000000     0.000000000000     0          
C399     C      0.000000000000     0.309200000000     0.500000000000     0          
C400     C      0.000000000000     0.244700000000     0.500000000000     0          
C401     C      0.000000000000     0.124600000000     0.500000000000     0          
C402     C      0.000000000000     0.060270000000     0.500000000000     0          
C403     C      0.000000000000     0.690800000000     0.500000000000     0          
C404     C      0.000000000000     0.755300000000     0.500000000000     0          
C405     C      0.000000000000     0.875400000000     0.500000000000     0          
C406     C      0.000000000000     0.939730000000     0.500000000000     0          
Pd407    Pd     0.593800000000     0.940400000000     0.500000000000     0          
Pd408    Pd     0.059600000000     0.593800000000     0.000000000000     0          
F409     F      0.197200000000     0.197200000000     0.250000000000     0          
F410     F      0.802800000000     0.802800000000     0.250000000000     0          
F411     F      0.802800000000     0.197200000000     0.750000000000     0          
F412     F      0.197200000000     0.802800000000     0.750000000000     0          
F413     F      0.802800000000     0.802800000000     0.750000000000     0          
F414     F      0.197200000000     0.197200000000     0.750000000000     0          
F415     F      0.197200000000     0.802800000000     0.250000000000     0          
F416     F      0.802800000000     0.197200000000     0.250000000000     0          


