data_NEJPAW

_audit_creation_method RASPA-1.0
_audit_creation_date 2020-11-2
_audit_author_name 'Rocio Bueno-Perez'

_cell_length_a    23.0135
_cell_length_b    23.0135
_cell_length_c    18.9024
_cell_angle_alpha 90
_cell_angle_beta  90
_cell_angle_gamma 90
_cell_volume      10011.1

_symmetry_cell_setting          triclinic
_symmetry_space_group_name_Hall 'P 1'
_symmetry_space_group_name_H-M  'P 1'
_symmetry_Int_Tables_number     1

_symmetry_equiv_pos_as_xyz 'x,y,z'

loop_
_atom_site_label
_atom_site_type_symbol
_atom_site_fract_x
_atom_site_fract_y
_atom_site_fract_z
_atom_site_charge
O1       O      0.086300000000     0.392900000000     0.130600000000     0          
O2       O      0.157200000000     0.442100000000     0.071800000000     0          
C3       C      0.262300000000     0.302500000000     0.229700000000     0          
C4       C      0.281100000000     0.336900000000     0.173000000000     0          
C5       C      0.239700000000     0.371200000000     0.137300000000     0          
H6       H      0.252000000000     0.394800000000     0.098900000000     0          
C7       C      0.183100000000     0.371300000000     0.156200000000     0          
C8       C      0.165600000000     0.336200000000     0.213300000000     0          
H9       H      0.125900000000     0.335900000000     0.227200000000     0          
C10      C      0.204700000000     0.302800000000     0.249000000000     0          
C11      C      0.139200000000     0.404400000000     0.116200000000     0          
F12      F      0.204600000000     0.206900000000     0.313000000000     0          
F13      F      0.192300000000     0.294100000000     0.381000000000     0          
F14      F      0.115200000000     0.259800000000     0.306000000000     0          
H15      H      0.320700000000     0.337200000000     0.159100000000     0          
C16      C      0.180000000000     0.267700000000     0.308700000000     0          
O17      O      0.913700000000     0.607100000000     0.130600000000     0          
O18      O      0.842800000000     0.557900000000     0.071800000000     0          
C19      C      0.737700000000     0.697500000000     0.229700000000     0          
C20      C      0.718900000000     0.663100000000     0.173000000000     0          
C21      C      0.760300000000     0.628800000000     0.137300000000     0          
H22      H      0.748000000000     0.605200000000     0.098900000000     0          
C23      C      0.816900000000     0.628700000000     0.156200000000     0          
C24      C      0.834400000000     0.663800000000     0.213300000000     0          
H25      H      0.874100000000     0.664100000000     0.227200000000     0          
C26      C      0.795300000000     0.697200000000     0.249000000000     0          
C27      C      0.860800000000     0.595600000000     0.116200000000     0          
F28      F      0.795400000000     0.793100000000     0.313000000000     0          
F29      F      0.807700000000     0.705900000000     0.381000000000     0          
F30      F      0.884800000000     0.740200000000     0.306000000000     0          
H31      H      0.679300000000     0.662800000000     0.159100000000     0          
C32      C      0.820000000000     0.732300000000     0.308700000000     0          
O33      O      0.607100000000     0.086300000000     0.630600000000     0          
O34      O      0.557900000000     0.157200000000     0.571800000000     0          
C35      C      0.697500000000     0.262300000000     0.729700000000     0          
C36      C      0.663100000000     0.281100000000     0.673000000000     0          
C37      C      0.628800000000     0.239700000000     0.637300000000     0          
H38      H      0.605200000000     0.252000000000     0.598900000000     0          
C39      C      0.628700000000     0.183100000000     0.656200000000     0          
C40      C      0.663800000000     0.165600000000     0.713300000000     0          
H41      H      0.664100000000     0.125900000000     0.727200000000     0          
C42      C      0.697200000000     0.204700000000     0.749000000000     0          
C43      C      0.595600000000     0.139200000000     0.616200000000     0          
C44      C      0.448700000000     0.011200000000     0.849300000000     0          
H45      H      0.413800000000     0.018800000000     0.824200000000     0          
C46      C      0.448800000000     0.011200000000     0.923100000000     0          
H47      H      0.948000000000     0.131400000000     0.542300000000     0          
F48      F      0.793100000000     0.204600000000     0.813000000000     0          
F49      F      0.705900000000     0.192300000000     0.881000000000     0          
F50      F      0.740200000000     0.115200000000     0.806000000000     0          
H51      H      0.662800000000     0.320700000000     0.659100000000     0          
H52      H      0.413800000000     0.018800000000     0.948100000000     0          
C53      C      0.732300000000     0.180000000000     0.808700000000     0          
F54      F      0.347100000000     0.611300000000     0.701800000000     0          
F55      F      0.282000000000     0.640500000000     0.609500000000     0          
F56      F      0.384000000000     0.645100000000     0.591200000000     0          
O57      O      0.392900000000     0.913700000000     0.630600000000     0          
O58      O      0.442100000000     0.842800000000     0.571800000000     0          
C59      C      0.302500000000     0.737700000000     0.729700000000     0          
C60      C      0.336900000000     0.718900000000     0.673000000000     0          
C61      C      0.371200000000     0.760300000000     0.637300000000     0          
H62      H      0.394800000000     0.748000000000     0.598900000000     0          
C63      C      0.371300000000     0.816900000000     0.656200000000     0          
C64      C      0.336200000000     0.834400000000     0.713300000000     0          
H65      H      0.335900000000     0.874100000000     0.727200000000     0          
C66      C      0.302800000000     0.795300000000     0.749000000000     0          
H67      H      0.279500000000     0.807900000000     0.787500000000     0          
C68      C      0.404400000000     0.860800000000     0.616200000000     0          
C69      C      0.339500000000     0.656900000000     0.647400000000     0          
C70      C      0.551300000000     0.988800000000     0.849300000000     0          
H71      H      0.586200000000     0.981200000000     0.824200000000     0          
C72      C      0.551200000000     0.988800000000     0.923100000000     0          
C73      C      0.606600000000     0.977000000000     0.962100000000     0          
H74      H      0.599300000000     0.978400000000     0.013200000000     0          
H75      H      0.620900000000     0.938100000000     0.949400000000     0          
H76      H      0.635700000000     0.006000000000     0.949400000000     0          
F77      F      0.611300000000     0.347100000000     0.798200000000     0          
F78      F      0.640500000000     0.282000000000     0.890500000000     0          
F79      F      0.645100000000     0.384000000000     0.908800000000     0          
O80      O      0.913700000000     0.392900000000     0.869400000000     0          
O81      O      0.842800000000     0.442100000000     0.928200000000     0          
C82      C      0.737700000000     0.302500000000     0.770300000000     0          
C83      C      0.718900000000     0.336900000000     0.827000000000     0          
C84      C      0.760300000000     0.371200000000     0.862700000000     0          
H85      H      0.748000000000     0.394800000000     0.901100000000     0          
C86      C      0.816900000000     0.371300000000     0.843800000000     0          
C87      C      0.834400000000     0.336200000000     0.786700000000     0          
H88      H      0.874100000000     0.335900000000     0.772800000000     0          
C89      C      0.795300000000     0.302800000000     0.751000000000     0          
H90      H      0.807900000000     0.279500000000     0.712500000000     0          
C91      C      0.860800000000     0.404400000000     0.883800000000     0          
C92      C      0.656900000000     0.339500000000     0.852600000000     0          
O93      O      0.086300000000     0.607100000000     0.869400000000     0          
O94      O      0.157200000000     0.557900000000     0.928200000000     0          
C95      C      0.262300000000     0.697500000000     0.770300000000     0          
C96      C      0.281100000000     0.663100000000     0.827000000000     0          
C97      C      0.239700000000     0.628800000000     0.862700000000     0          
H98      H      0.252000000000     0.605200000000     0.901100000000     0          
C99      C      0.183100000000     0.628700000000     0.843800000000     0          
C100     C      0.165600000000     0.663800000000     0.786700000000     0          
H101     H      0.125900000000     0.664100000000     0.772800000000     0          
C102     C      0.204700000000     0.697200000000     0.751000000000     0          
C103     C      0.139200000000     0.595600000000     0.883800000000     0          
H104     H      0.131400000000     0.948000000000     0.957700000000     0          
F105     F      0.204600000000     0.793100000000     0.687000000000     0          
F106     F      0.192300000000     0.705900000000     0.619000000000     0          
F107     F      0.115200000000     0.740200000000     0.694000000000     0          
H108     H      0.320700000000     0.662800000000     0.840900000000     0          
C109     C      0.180000000000     0.732300000000     0.691300000000     0          
F110     F      0.347100000000     0.388700000000     0.298200000000     0          
F111     F      0.282000000000     0.359500000000     0.390500000000     0          
F112     F      0.384000000000     0.354900000000     0.408800000000     0          
O113     O      0.392900000000     0.086300000000     0.369400000000     0          
O114     O      0.442100000000     0.157200000000     0.428200000000     0          
C115     C      0.302500000000     0.262300000000     0.270300000000     0          
C116     C      0.336900000000     0.281100000000     0.327000000000     0          
C117     C      0.371200000000     0.239700000000     0.362700000000     0          
H118     H      0.394800000000     0.252000000000     0.401100000000     0          
C119     C      0.371300000000     0.183100000000     0.343800000000     0          
C120     C      0.336200000000     0.165600000000     0.286700000000     0          
H121     H      0.335900000000     0.125900000000     0.272800000000     0          
C122     C      0.302800000000     0.204700000000     0.251000000000     0          
H123     H      0.279500000000     0.192100000000     0.212500000000     0          
C124     C      0.404400000000     0.139200000000     0.383800000000     0          
C125     C      0.339500000000     0.343100000000     0.352600000000     0          
C126     C      0.551300000000     0.011200000000     0.150700000000     0          
H127     H      0.586200000000     0.018800000000     0.175800000000     0          
C128     C      0.551200000000     0.011200000000     0.076900000000     0          
H129     H      0.586200000000     0.018800000000     0.051900000000     0          
F130     F      0.652900000000     0.611300000000     0.298200000000     0          
F131     F      0.718000000000     0.640500000000     0.390500000000     0          
F132     F      0.616000000000     0.645100000000     0.408800000000     0          
O133     O      0.607100000000     0.913700000000     0.369400000000     0          
O134     O      0.557900000000     0.842800000000     0.428200000000     0          
C135     C      0.697500000000     0.737700000000     0.270300000000     0          
C136     C      0.663100000000     0.718900000000     0.327000000000     0          
C137     C      0.628800000000     0.760300000000     0.362700000000     0          
H138     H      0.605200000000     0.748000000000     0.401100000000     0          
C139     C      0.628700000000     0.816900000000     0.343800000000     0          
C140     C      0.663800000000     0.834400000000     0.286700000000     0          
H141     H      0.664100000000     0.874100000000     0.272800000000     0          
C142     C      0.697200000000     0.795300000000     0.251000000000     0          
H143     H      0.720500000000     0.807900000000     0.212500000000     0          
C144     C      0.595600000000     0.860800000000     0.383800000000     0          
C145     C      0.660500000000     0.656900000000     0.352600000000     0          
C146     C      0.448700000000     0.988800000000     0.150700000000     0          
H147     H      0.413800000000     0.981200000000     0.175800000000     0          
C148     C      0.448800000000     0.988800000000     0.076900000000     0          
H149     H      0.413800000000     0.981200000000     0.051900000000     0          
F150     F      0.611300000000     0.652900000000     0.798200000000     0          
F151     F      0.640500000000     0.718000000000     0.890500000000     0          
F152     F      0.645100000000     0.616000000000     0.908800000000     0          
O153     O      0.913700000000     0.607100000000     0.869400000000     0          
O154     O      0.842800000000     0.557900000000     0.928200000000     0          
C155     C      0.737700000000     0.697500000000     0.770300000000     0          
C156     C      0.718900000000     0.663100000000     0.827000000000     0          
C157     C      0.760300000000     0.628800000000     0.862700000000     0          
H158     H      0.748000000000     0.605200000000     0.901100000000     0          
C159     C      0.816900000000     0.628700000000     0.843800000000     0          
C160     C      0.834400000000     0.663800000000     0.786700000000     0          
H161     H      0.874100000000     0.664100000000     0.772800000000     0          
C162     C      0.795300000000     0.697200000000     0.751000000000     0          
H163     H      0.807900000000     0.720500000000     0.712500000000     0          
C164     C      0.860800000000     0.595600000000     0.883800000000     0          
C165     C      0.656900000000     0.660500000000     0.852600000000     0          
C166     C      0.988800000000     0.448700000000     0.650700000000     0          
H167     H      0.981200000000     0.413800000000     0.675800000000     0          
C168     C      0.988800000000     0.448800000000     0.576900000000     0          
H169     H      0.981200000000     0.413800000000     0.551900000000     0          
O170     O      0.086300000000     0.392900000000     0.869400000000     0          
O171     O      0.157200000000     0.442100000000     0.928200000000     0          
C172     C      0.262300000000     0.302500000000     0.770300000000     0          
C173     C      0.281100000000     0.336900000000     0.827000000000     0          
C174     C      0.239700000000     0.371200000000     0.862700000000     0          
H175     H      0.252000000000     0.394800000000     0.901100000000     0          
C176     C      0.183100000000     0.371300000000     0.843800000000     0          
C177     C      0.165600000000     0.336200000000     0.786700000000     0          
H178     H      0.125900000000     0.335900000000     0.772800000000     0          
C179     C      0.204700000000     0.302800000000     0.751000000000     0          
C180     C      0.139200000000     0.404400000000     0.883800000000     0          
C181     C      0.011200000000     0.551300000000     0.650700000000     0          
H182     H      0.018800000000     0.586200000000     0.675800000000     0          
C183     C      0.011200000000     0.551200000000     0.576900000000     0          
C184     C      0.023000000000     0.606600000000     0.537900000000     0          
F185     F      0.204600000000     0.206900000000     0.687000000000     0          
F186     F      0.192300000000     0.294100000000     0.619000000000     0          
F187     F      0.115200000000     0.259800000000     0.694000000000     0          
H188     H      0.320700000000     0.337200000000     0.840900000000     0          
C189     C      0.180000000000     0.267700000000     0.691300000000     0          
H190     H      0.021600000000     0.599300000000     0.486800000000     0          
H191     H      0.061900000000     0.620900000000     0.550600000000     0          
H192     H      0.994000000000     0.635700000000     0.550600000000     0          
O193     O      0.392900000000     0.913700000000     0.369400000000     0          
O194     O      0.442100000000     0.842800000000     0.428200000000     0          
C195     C      0.302500000000     0.737700000000     0.270300000000     0          
C196     C      0.336900000000     0.718900000000     0.327000000000     0          
C197     C      0.371200000000     0.760300000000     0.362700000000     0          
H198     H      0.394800000000     0.748000000000     0.401100000000     0          
C199     C      0.371300000000     0.816900000000     0.343800000000     0          
C200     C      0.336200000000     0.834400000000     0.286700000000     0          
H201     H      0.335900000000     0.874100000000     0.272800000000     0          
C202     C      0.302800000000     0.795300000000     0.251000000000     0          
C203     C      0.404400000000     0.860800000000     0.383800000000     0          
F204     F      0.206900000000     0.795400000000     0.187000000000     0          
F205     F      0.294100000000     0.807700000000     0.119000000000     0          
F206     F      0.259800000000     0.884800000000     0.194000000000     0          
H207     H      0.337200000000     0.679300000000     0.340900000000     0          
C208     C      0.267700000000     0.820000000000     0.191300000000     0          
F209     F      0.652900000000     0.388700000000     0.298200000000     0          
F210     F      0.718000000000     0.359500000000     0.390500000000     0          
F211     F      0.616000000000     0.354900000000     0.408800000000     0          
O212     O      0.607100000000     0.086300000000     0.369400000000     0          
O213     O      0.557900000000     0.157200000000     0.428200000000     0          
C214     C      0.697500000000     0.262300000000     0.270300000000     0          
C215     C      0.663100000000     0.281100000000     0.327000000000     0          
C216     C      0.628800000000     0.239700000000     0.362700000000     0          
H217     H      0.605200000000     0.252000000000     0.401100000000     0          
C218     C      0.628700000000     0.183100000000     0.343800000000     0          
C219     C      0.663800000000     0.165600000000     0.286700000000     0          
H220     H      0.664100000000     0.125900000000     0.272800000000     0          
C221     C      0.697200000000     0.204700000000     0.251000000000     0          
H222     H      0.720500000000     0.192100000000     0.212500000000     0          
C223     C      0.595600000000     0.139200000000     0.383800000000     0          
C224     C      0.660500000000     0.343100000000     0.352600000000     0          
H225     H      0.948000000000     0.131400000000     0.457700000000     0          
F226     F      0.388700000000     0.652900000000     0.201800000000     0          
F227     F      0.359500000000     0.718000000000     0.109500000000     0          
F228     F      0.354900000000     0.616000000000     0.091200000000     0          
O229     O      0.086300000000     0.607100000000     0.130600000000     0          
O230     O      0.157200000000     0.557900000000     0.071800000000     0          
C231     C      0.262300000000     0.697500000000     0.229700000000     0          
C232     C      0.281100000000     0.663100000000     0.173000000000     0          
C233     C      0.239700000000     0.628800000000     0.137300000000     0          
H234     H      0.252000000000     0.605200000000     0.098900000000     0          
C235     C      0.183100000000     0.628700000000     0.156200000000     0          
C236     C      0.165600000000     0.663800000000     0.213300000000     0          
H237     H      0.125900000000     0.664100000000     0.227200000000     0          
C238     C      0.204700000000     0.697200000000     0.249000000000     0          
H239     H      0.192100000000     0.720500000000     0.287500000000     0          
C240     C      0.139200000000     0.595600000000     0.116200000000     0          
C241     C      0.343100000000     0.660500000000     0.147400000000     0          
C242     C      0.011200000000     0.448700000000     0.349300000000     0          
H243     H      0.018800000000     0.413800000000     0.324200000000     0          
C244     C      0.011200000000     0.448800000000     0.423100000000     0          
H245     H      0.131400000000     0.948000000000     0.042300000000     0          
H246     H      0.018800000000     0.413800000000     0.448100000000     0          
O247     O      0.913700000000     0.392900000000     0.130600000000     0          
O248     O      0.842800000000     0.442100000000     0.071800000000     0          
C249     C      0.737700000000     0.302500000000     0.229700000000     0          
C250     C      0.718900000000     0.336900000000     0.173000000000     0          
C251     C      0.760300000000     0.371200000000     0.137300000000     0          
H252     H      0.748000000000     0.394800000000     0.098900000000     0          
C253     C      0.816900000000     0.371300000000     0.156200000000     0          
C254     C      0.834400000000     0.336200000000     0.213300000000     0          
H255     H      0.874100000000     0.335900000000     0.227200000000     0          
C256     C      0.795300000000     0.302800000000     0.249000000000     0          
C257     C      0.860800000000     0.404400000000     0.116200000000     0          
C258     C      0.988800000000     0.551300000000     0.349300000000     0          
H259     H      0.981200000000     0.586200000000     0.324200000000     0          
C260     C      0.988800000000     0.551200000000     0.423100000000     0          
F261     F      0.795400000000     0.206900000000     0.313000000000     0          
F262     F      0.807700000000     0.294100000000     0.381000000000     0          
F263     F      0.884800000000     0.259800000000     0.306000000000     0          
H264     H      0.679300000000     0.337200000000     0.159100000000     0          
H265     H      0.981200000000     0.586200000000     0.448100000000     0          
C266     C      0.820000000000     0.267700000000     0.308700000000     0          
O267     O      0.607100000000     0.913700000000     0.630600000000     0          
O268     O      0.557900000000     0.842800000000     0.571800000000     0          
C269     C      0.697500000000     0.737700000000     0.729700000000     0          
C270     C      0.663100000000     0.718900000000     0.673000000000     0          
C271     C      0.628800000000     0.760300000000     0.637300000000     0          
H272     H      0.605200000000     0.748000000000     0.598900000000     0          
C273     C      0.628700000000     0.816900000000     0.656200000000     0          
C274     C      0.663800000000     0.834400000000     0.713300000000     0          
H275     H      0.664100000000     0.874100000000     0.727200000000     0          
C276     C      0.697200000000     0.795300000000     0.749000000000     0          
C277     C      0.595600000000     0.860800000000     0.616200000000     0          
F278     F      0.793100000000     0.795400000000     0.813000000000     0          
F279     F      0.705900000000     0.807700000000     0.881000000000     0          
F280     F      0.740200000000     0.884800000000     0.806000000000     0          
H281     H      0.662800000000     0.679300000000     0.659100000000     0          
C282     C      0.732300000000     0.820000000000     0.808700000000     0          
F283     F      0.347100000000     0.388700000000     0.701800000000     0          
F284     F      0.282000000000     0.359500000000     0.609500000000     0          
F285     F      0.384000000000     0.354900000000     0.591200000000     0          
O286     O      0.392900000000     0.086300000000     0.630600000000     0          
O287     O      0.442100000000     0.157200000000     0.571800000000     0          
C288     C      0.302500000000     0.262300000000     0.729700000000     0          
C289     C      0.336900000000     0.281100000000     0.673000000000     0          
C290     C      0.371200000000     0.239700000000     0.637300000000     0          
H291     H      0.394800000000     0.252000000000     0.598900000000     0          
C292     C      0.371300000000     0.183100000000     0.656200000000     0          
C293     C      0.336200000000     0.165600000000     0.713300000000     0          
H294     H      0.335900000000     0.125900000000     0.727200000000     0          
C295     C      0.302800000000     0.204700000000     0.749000000000     0          
H296     H      0.279500000000     0.192100000000     0.787500000000     0          
C297     C      0.404400000000     0.139200000000     0.616200000000     0          
C298     C      0.339500000000     0.343100000000     0.647400000000     0          
H299     H      0.599300000000     0.021600000000     0.013200000000     0          
Zr300    Zr     0.000000000000     0.423980000000     0.092390000000     0          
O301     O      0.000000000000     0.433500000000     0.208300000000     0          
O302     O      0.000000000000     0.329100000000     0.070200000000     0          
C303     C      0.000000000000     0.217800000000     0.063800000000     0          
H304     H      0.000000000000     0.238500000000     0.107300000000     0          
C305     C      0.000000000000     0.157000000000     0.063700000000     0          
H306     H      0.000000000000     0.136400000000     0.107300000000     0          
Zr307    Zr     0.000000000000     0.576020000000     0.092390000000     0          
O308     O      0.000000000000     0.566500000000     0.208300000000     0          
O309     O      0.000000000000     0.670900000000     0.070200000000     0          
C310     C      0.000000000000     0.782200000000     0.063800000000     0          
H311     H      0.000000000000     0.761500000000     0.107300000000     0          
C312     C      0.000000000000     0.843000000000     0.063700000000     0          
H313     H      0.000000000000     0.863600000000     0.107300000000     0          
Zr314    Zr     0.576020000000     0.000000000000     0.592390000000     0          
O315     O      0.566500000000     0.000000000000     0.708300000000     0          
O316     O      0.670900000000     0.000000000000     0.570200000000     0          
C317     C      0.782200000000     0.000000000000     0.563800000000     0          
H318     H      0.761500000000     0.000000000000     0.607300000000     0          
C319     C      0.843000000000     0.000000000000     0.563700000000     0          
H320     H      0.863600000000     0.000000000000     0.607300000000     0          
Zr321    Zr     0.423980000000     0.000000000000     0.592390000000     0          
O322     O      0.433500000000     0.000000000000     0.708300000000     0          
O323     O      0.329100000000     0.000000000000     0.570200000000     0          
C324     C      0.217800000000     0.000000000000     0.563800000000     0          
H325     H      0.238500000000     0.000000000000     0.607300000000     0          
C326     C      0.157000000000     0.000000000000     0.563700000000     0          
H327     H      0.136400000000     0.000000000000     0.607300000000     0          
Zr328    Zr     0.000000000000     0.423980000000     0.907610000000     0          
O329     O      0.000000000000     0.433500000000     0.791700000000     0          
O330     O      0.000000000000     0.329100000000     0.929800000000     0          
C331     C      0.000000000000     0.217800000000     0.936200000000     0          
H332     H      0.000000000000     0.238500000000     0.892700000000     0          
C333     C      0.000000000000     0.157000000000     0.936300000000     0          
H334     H      0.000000000000     0.136400000000     0.892700000000     0          
Zr335    Zr     0.000000000000     0.576020000000     0.907610000000     0          
O336     O      0.000000000000     0.566500000000     0.791700000000     0          
O337     O      0.000000000000     0.670900000000     0.929800000000     0          
C338     C      0.000000000000     0.782200000000     0.936200000000     0          
H339     H      0.000000000000     0.761500000000     0.892700000000     0          
C340     C      0.000000000000     0.843000000000     0.936300000000     0          
H341     H      0.000000000000     0.863600000000     0.892700000000     0          
Zr342    Zr     0.423980000000     0.000000000000     0.407610000000     0          
O343     O      0.433500000000     0.000000000000     0.291700000000     0          
O344     O      0.329100000000     0.000000000000     0.429800000000     0          
C345     C      0.217800000000     0.000000000000     0.436200000000     0          
H346     H      0.238500000000     0.000000000000     0.392700000000     0          
C347     C      0.157000000000     0.000000000000     0.436300000000     0          
H348     H      0.136400000000     0.000000000000     0.392700000000     0          
Zr349    Zr     0.576020000000     0.000000000000     0.407610000000     0          
O350     O      0.566500000000     0.000000000000     0.291700000000     0          
O351     O      0.670900000000     0.000000000000     0.429800000000     0          
C352     C      0.782200000000     0.000000000000     0.436200000000     0          
H353     H      0.761500000000     0.000000000000     0.392700000000     0          
C354     C      0.843000000000     0.000000000000     0.436300000000     0          
H355     H      0.863600000000     0.000000000000     0.392700000000     0          
Zr356    Zr     0.107510000000     0.500000000000     0.000000000000     0          
Zr357    Zr     0.892490000000     0.500000000000     0.000000000000     0          
Zr358    Zr     0.500000000000     0.107510000000     0.500000000000     0          
Zr359    Zr     0.500000000000     0.892490000000     0.500000000000     0          
O360     O      0.052800000000     0.500000000000     0.092100000000     0          
O361     O      0.947200000000     0.500000000000     0.092100000000     0          
O362     O      0.500000000000     0.052800000000     0.592100000000     0          
O363     O      0.500000000000     0.947200000000     0.592100000000     0          
O364     O      0.947200000000     0.500000000000     0.907900000000     0          
O365     O      0.052800000000     0.500000000000     0.907900000000     0          
O366     O      0.500000000000     0.052800000000     0.407900000000     0          
O367     O      0.500000000000     0.947200000000     0.407900000000     0          
O368     O      0.053800000000     0.425700000000     0.000000000000     0          
C369     C      0.052400000000     0.030230000000     0.000000000000     0          
H370     H      0.088200000000     0.050800000000     0.000000000000     0          
O371     O      0.946200000000     0.574300000000     0.000000000000     0          
C372     C      0.947600000000     0.969770000000     0.000000000000     0          
H373     H      0.911800000000     0.949200000000     0.000000000000     0          
O374     O      0.574300000000     0.053800000000     0.500000000000     0          
C375     C      0.969770000000     0.052400000000     0.500000000000     0          
C376     C      0.937600000000     0.109200000000     0.500000000000     0          
H377     H      0.895600000000     0.101700000000     0.500000000000     0          
O378     O      0.425700000000     0.946200000000     0.500000000000     0          
C379     C      0.030230000000     0.947600000000     0.500000000000     0          
H380     H      0.050800000000     0.911800000000     0.500000000000     0          
O381     O      0.946200000000     0.425700000000     0.000000000000     0          
C382     C      0.947600000000     0.030230000000     0.000000000000     0          
H383     H      0.911800000000     0.050800000000     0.000000000000     0          
O384     O      0.053800000000     0.574300000000     0.000000000000     0          
C385     C      0.052400000000     0.969770000000     0.000000000000     0          
C386     C      0.109200000000     0.937600000000     0.000000000000     0          
H387     H      0.101700000000     0.895600000000     0.000000000000     0          
O388     O      0.425700000000     0.053800000000     0.500000000000     0          
C389     C      0.030230000000     0.052400000000     0.500000000000     0          
H390     H      0.050800000000     0.088200000000     0.500000000000     0          
O391     O      0.574300000000     0.946200000000     0.500000000000     0          
C392     C      0.969770000000     0.947600000000     0.500000000000     0          
H393     H      0.949200000000     0.911800000000     0.500000000000     0          
C394     C      0.000000000000     0.500000000000     0.233300000000     0          
C395     C      0.000000000000     0.500000000000     0.312600000000     0          
C396     C      0.000000000000     0.500000000000     0.460300000000     0          
C397     C      0.500000000000     0.000000000000     0.733300000000     0          
C398     C      0.500000000000     0.000000000000     0.812600000000     0          
C399     C      0.500000000000     0.000000000000     0.960300000000     0          
C400     C      0.000000000000     0.500000000000     0.766700000000     0          
C401     C      0.000000000000     0.500000000000     0.687400000000     0          
C402     C      0.000000000000     0.500000000000     0.539700000000     0          
C403     C      0.500000000000     0.000000000000     0.266700000000     0          
C404     C      0.500000000000     0.000000000000     0.187400000000     0          
C405     C      0.500000000000     0.000000000000     0.039700000000     0          
C406     C      0.000000000000     0.313000000000     0.000000000000     0          
C407     C      0.000000000000     0.247900000000     0.000000000000     0          
C408     C      0.000000000000     0.126600000000     0.000000000000     0          
C409     C      0.000000000000     0.060800000000     0.000000000000     0          
C410     C      0.000000000000     0.687000000000     0.000000000000     0          
C411     C      0.000000000000     0.752100000000     0.000000000000     0          
C412     C      0.000000000000     0.873400000000     0.000000000000     0          
C413     C      0.000000000000     0.939200000000     0.000000000000     0          
C414     C      0.687000000000     0.000000000000     0.500000000000     0          
C415     C      0.752100000000     0.000000000000     0.500000000000     0          
C416     C      0.873400000000     0.000000000000     0.500000000000     0          
C417     C      0.939200000000     0.000000000000     0.500000000000     0          
C418     C      0.313000000000     0.000000000000     0.500000000000     0          
C419     C      0.247900000000     0.000000000000     0.500000000000     0          
C420     C      0.126600000000     0.000000000000     0.500000000000     0          
C421     C      0.060800000000     0.000000000000     0.500000000000     0          


