data_NEVDIE

_audit_creation_method RASPA-1.0
_audit_creation_date 2020-11-2
_audit_author_name 'Rocio Bueno-Perez'

_cell_length_a    18.779
_cell_length_b    18.779
_cell_length_c    33.087
_cell_angle_alpha 90
_cell_angle_beta  90
_cell_angle_gamma 90
_cell_volume      11668.2

_symmetry_cell_setting          triclinic
_symmetry_space_group_name_Hall 'P 1'
_symmetry_space_group_name_H-M  'P 1'
_symmetry_Int_Tables_number     1

_symmetry_equiv_pos_as_xyz 'x,y,z'

loop_
_atom_site_label
_atom_site_type_symbol
_atom_site_fract_x
_atom_site_fract_y
_atom_site_fract_z
_atom_site_charge
O1       O      0.407200000000     0.465000000000     0.392700000000     0          
O2       O      0.539700000000     0.586400000000     0.464400000000     0          
O3       O      0.327600000000     0.432500000000     0.439400000000     0          
C4       C      0.351800000000     0.437900000000     0.401900000000     0          
C5       C      0.087600000000     0.475200000000     0.277600000000     0          
C6       C      0.134900000000     0.422000000000     0.278700000000     0          
C7       C      0.092900000000     0.535100000000     0.308300000000     0          
H8       H      0.048700000000     0.539200000000     0.322600000000     0          
H9       H      0.102900000000     0.579000000000     0.294500000000     0          
H10      H      0.130600000000     0.524900000000     0.327000000000     0          
C11      C      0.310800000000     0.448660000000     0.331970000000     0          
H12      H      0.357400000000     0.461700000000     0.325900000000     0          
C13      C      0.260100000000     0.445410000000     0.301430000000     0          
H14      H      0.272700000000     0.456300000000     0.275000000000     0          
C15      C      0.190500000000     0.425960000000     0.310450000000     0          
C16      C      0.171600000000     0.409750000000     0.350020000000     0          
H17      H      0.125000000000     0.396700000000     0.356100000000     0          
C18      C      0.222300000000     0.412990000000     0.380560000000     0          
H19      H      0.209600000000     0.402100000000     0.407000000000     0          
C20      C      0.291900000000     0.432450000000     0.371530000000     0          
H21      H      0.176800000000     0.280700000000     0.228600000000     0          
H22      H      0.231700000000     0.335700000000     0.245900000000     0          
H23      H      0.185600000000     0.289500000000     0.275500000000     0          
O24      O      0.592800000000     0.535000000000     0.392700000000     0          
O25      O      0.460300000000     0.413600000000     0.464400000000     0          
O26      O      0.672400000000     0.567500000000     0.439400000000     0          
C27      C      0.648200000000     0.562100000000     0.401900000000     0          
C28      C      0.912400000000     0.524800000000     0.277600000000     0          
C29      C      0.865100000000     0.578000000000     0.278700000000     0          
C30      C      0.907100000000     0.464900000000     0.308300000000     0          
H31      H      0.951300000000     0.460800000000     0.322600000000     0          
H32      H      0.897100000000     0.421000000000     0.294500000000     0          
H33      H      0.869400000000     0.475100000000     0.327000000000     0          
C34      C      0.689200000000     0.551340000000     0.331970000000     0          
H35      H      0.642600000000     0.538300000000     0.325900000000     0          
C36      C      0.739900000000     0.554590000000     0.301430000000     0          
H37      H      0.727300000000     0.543700000000     0.275000000000     0          
C38      C      0.809500000000     0.574040000000     0.310450000000     0          
C39      C      0.828400000000     0.590250000000     0.350020000000     0          
H40      H      0.875000000000     0.603300000000     0.356100000000     0          
C41      C      0.777700000000     0.587010000000     0.380560000000     0          
H42      H      0.790400000000     0.597900000000     0.407000000000     0          
C43      C      0.708100000000     0.567550000000     0.371530000000     0          
H44      H      0.823200000000     0.719300000000     0.228600000000     0          
H45      H      0.768300000000     0.664300000000     0.245900000000     0          
H46      H      0.814400000000     0.710500000000     0.275500000000     0          
O47      O      0.535000000000     0.407200000000     0.392700000000     0          
O48      O      0.413600000000     0.539700000000     0.464400000000     0          
O49      O      0.567500000000     0.327600000000     0.439400000000     0          
C50      C      0.562100000000     0.351800000000     0.401900000000     0          
C51      C      0.524800000000     0.087600000000     0.277600000000     0          
C52      C      0.578000000000     0.134900000000     0.278700000000     0          
C53      C      0.464900000000     0.092900000000     0.308300000000     0          
H54      H      0.460800000000     0.048700000000     0.322600000000     0          
H55      H      0.421000000000     0.102900000000     0.294500000000     0          
H56      H      0.475100000000     0.130600000000     0.327000000000     0          
C57      C      0.551340000000     0.310800000000     0.331970000000     0          
H58      H      0.538300000000     0.357400000000     0.325900000000     0          
C59      C      0.554590000000     0.260100000000     0.301430000000     0          
H60      H      0.543700000000     0.272700000000     0.275000000000     0          
C61      C      0.574040000000     0.190500000000     0.310450000000     0          
C62      C      0.590250000000     0.171600000000     0.350020000000     0          
H63      H      0.603300000000     0.125000000000     0.356100000000     0          
C64      C      0.587010000000     0.222300000000     0.380560000000     0          
H65      H      0.597900000000     0.209600000000     0.407000000000     0          
C66      C      0.567550000000     0.291900000000     0.371530000000     0          
H67      H      0.719300000000     0.176800000000     0.228600000000     0          
H68      H      0.664300000000     0.231700000000     0.245900000000     0          
H69      H      0.710500000000     0.185600000000     0.275500000000     0          
O70      O      0.465000000000     0.592800000000     0.392700000000     0          
O71      O      0.586400000000     0.460300000000     0.464400000000     0          
O72      O      0.432500000000     0.672400000000     0.439400000000     0          
C73      C      0.437900000000     0.648200000000     0.401900000000     0          
C74      C      0.475200000000     0.912400000000     0.277600000000     0          
C75      C      0.422000000000     0.865100000000     0.278700000000     0          
C76      C      0.535100000000     0.907100000000     0.308300000000     0          
H77      H      0.539200000000     0.951300000000     0.322600000000     0          
H78      H      0.579000000000     0.897100000000     0.294500000000     0          
H79      H      0.524900000000     0.869400000000     0.327000000000     0          
C80      C      0.448660000000     0.689200000000     0.331970000000     0          
H81      H      0.461700000000     0.642600000000     0.325900000000     0          
C82      C      0.445410000000     0.739900000000     0.301430000000     0          
H83      H      0.456300000000     0.727300000000     0.275000000000     0          
C84      C      0.425960000000     0.809500000000     0.310450000000     0          
C85      C      0.409750000000     0.828400000000     0.350020000000     0          
H86      H      0.396700000000     0.875000000000     0.356100000000     0          
C87      C      0.412990000000     0.777700000000     0.380560000000     0          
H88      H      0.402100000000     0.790400000000     0.407000000000     0          
C89      C      0.432450000000     0.708100000000     0.371530000000     0          
O90      O      0.092800000000     0.965000000000     0.107300000000     0          
O91      O      0.960300000000     0.086400000000     0.035600000000     0          
O92      O      0.172400000000     0.932500000000     0.060600000000     0          
C93      C      0.148200000000     0.937900000000     0.098100000000     0          
C94      C      0.412400000000     0.975200000000     0.222400000000     0          
C95      C      0.365100000000     0.922000000000     0.221300000000     0          
C96      C      0.407100000000     0.035100000000     0.191700000000     0          
H97      H      0.451300000000     0.039200000000     0.177400000000     0          
H98      H      0.397100000000     0.079000000000     0.205500000000     0          
H99      H      0.369400000000     0.024900000000     0.173000000000     0          
C100     C      0.189200000000     0.948660000000     0.168030000000     0          
H101     H      0.142600000000     0.961700000000     0.174100000000     0          
C102     C      0.239900000000     0.945410000000     0.198570000000     0          
H103     H      0.227300000000     0.956300000000     0.225000000000     0          
C104     C      0.309500000000     0.925960000000     0.189550000000     0          
C105     C      0.328400000000     0.909750000000     0.149980000000     0          
H106     H      0.375000000000     0.896700000000     0.143900000000     0          
C107     C      0.277700000000     0.912990000000     0.119440000000     0          
H108     H      0.290400000000     0.902100000000     0.093000000000     0          
C109     C      0.208100000000     0.932450000000     0.128470000000     0          
H110     H      0.323200000000     0.780700000000     0.271400000000     0          
H111     H      0.268300000000     0.835700000000     0.254100000000     0          
H112     H      0.314400000000     0.789500000000     0.224500000000     0          
O113     O      0.907200000000     0.035000000000     0.107300000000     0          
O114     O      0.039700000000     0.913600000000     0.035600000000     0          
O115     O      0.827600000000     0.067500000000     0.060600000000     0          
C116     C      0.851800000000     0.062100000000     0.098100000000     0          
C117     C      0.587600000000     0.024800000000     0.222400000000     0          
C118     C      0.634900000000     0.078000000000     0.221300000000     0          
C119     C      0.592900000000     0.964900000000     0.191700000000     0          
H120     H      0.548700000000     0.960800000000     0.177400000000     0          
H121     H      0.602900000000     0.921000000000     0.205500000000     0          
H122     H      0.630600000000     0.975100000000     0.173000000000     0          
C123     C      0.810800000000     0.051340000000     0.168030000000     0          
H124     H      0.857400000000     0.038300000000     0.174100000000     0          
C125     C      0.760100000000     0.054590000000     0.198570000000     0          
H126     H      0.772700000000     0.043700000000     0.225000000000     0          
C127     C      0.690500000000     0.074040000000     0.189550000000     0          
C128     C      0.671600000000     0.090250000000     0.149980000000     0          
H129     H      0.625000000000     0.103300000000     0.143900000000     0          
C130     C      0.722300000000     0.087010000000     0.119440000000     0          
H131     H      0.709600000000     0.097900000000     0.093000000000     0          
C132     C      0.791900000000     0.067550000000     0.128470000000     0          
O133     O      0.965000000000     0.907200000000     0.107300000000     0          
O134     O      0.086400000000     0.039700000000     0.035600000000     0          
O135     O      0.932500000000     0.827600000000     0.060600000000     0          
C136     C      0.937900000000     0.851800000000     0.098100000000     0          
C137     C      0.975200000000     0.587600000000     0.222400000000     0          
C138     C      0.922000000000     0.634900000000     0.221300000000     0          
C139     C      0.035100000000     0.592900000000     0.191700000000     0          
H140     H      0.039200000000     0.548700000000     0.177400000000     0          
H141     H      0.079000000000     0.602900000000     0.205500000000     0          
H142     H      0.024900000000     0.630600000000     0.173000000000     0          
C143     C      0.948660000000     0.810800000000     0.168030000000     0          
H144     H      0.961700000000     0.857400000000     0.174100000000     0          
C145     C      0.945410000000     0.760100000000     0.198570000000     0          
H146     H      0.956300000000     0.772700000000     0.225000000000     0          
C147     C      0.925960000000     0.690500000000     0.189550000000     0          
C148     C      0.909750000000     0.671600000000     0.149980000000     0          
H149     H      0.896700000000     0.625000000000     0.143900000000     0          
C150     C      0.912990000000     0.722300000000     0.119440000000     0          
H151     H      0.902100000000     0.709600000000     0.093000000000     0          
C152     C      0.932450000000     0.791900000000     0.128470000000     0          
O153     O      0.035000000000     0.092800000000     0.107300000000     0          
O154     O      0.913600000000     0.960300000000     0.035600000000     0          
O155     O      0.067500000000     0.172400000000     0.060600000000     0          
C156     C      0.062100000000     0.148200000000     0.098100000000     0          
C157     C      0.024800000000     0.412400000000     0.222400000000     0          
C158     C      0.078000000000     0.365100000000     0.221300000000     0          
C159     C      0.964900000000     0.407100000000     0.191700000000     0          
H160     H      0.960800000000     0.451300000000     0.177400000000     0          
H161     H      0.921000000000     0.397100000000     0.205500000000     0          
H162     H      0.975100000000     0.369400000000     0.173000000000     0          
C163     C      0.051340000000     0.189200000000     0.168030000000     0          
H164     H      0.038300000000     0.142600000000     0.174100000000     0          
C165     C      0.054590000000     0.239900000000     0.198570000000     0          
H166     H      0.043700000000     0.227300000000     0.225000000000     0          
C167     C      0.074040000000     0.309500000000     0.189550000000     0          
C168     C      0.090250000000     0.328400000000     0.149980000000     0          
H169     H      0.103300000000     0.375000000000     0.143900000000     0          
C170     C      0.087010000000     0.277700000000     0.119440000000     0          
H171     H      0.097900000000     0.290400000000     0.093000000000     0          
C172     C      0.067550000000     0.208100000000     0.128470000000     0          
O173     O      0.592800000000     0.535000000000     0.607300000000     0          
O174     O      0.460300000000     0.413600000000     0.535600000000     0          
O175     O      0.672400000000     0.567500000000     0.560600000000     0          
C176     C      0.648200000000     0.562100000000     0.598100000000     0          
C177     C      0.912400000000     0.524800000000     0.722400000000     0          
C178     C      0.865100000000     0.578000000000     0.721300000000     0          
C179     C      0.907100000000     0.464900000000     0.691700000000     0          
H180     H      0.951300000000     0.460800000000     0.677400000000     0          
H181     H      0.897100000000     0.421000000000     0.705500000000     0          
H182     H      0.869400000000     0.475100000000     0.673000000000     0          
C183     C      0.689200000000     0.551340000000     0.668030000000     0          
H184     H      0.642600000000     0.538300000000     0.674100000000     0          
C185     C      0.739900000000     0.554590000000     0.698570000000     0          
H186     H      0.727300000000     0.543700000000     0.725000000000     0          
C187     C      0.809500000000     0.574040000000     0.689550000000     0          
C188     C      0.828400000000     0.590250000000     0.649980000000     0          
H189     H      0.875000000000     0.603300000000     0.643900000000     0          
C190     C      0.777700000000     0.587010000000     0.619440000000     0          
H191     H      0.790400000000     0.597900000000     0.593000000000     0          
C192     C      0.708100000000     0.567550000000     0.628470000000     0          
H193     H      0.823200000000     0.719300000000     0.771400000000     0          
H194     H      0.768300000000     0.664300000000     0.754100000000     0          
H195     H      0.814400000000     0.710500000000     0.724500000000     0          
O196     O      0.407200000000     0.465000000000     0.607300000000     0          
O197     O      0.539700000000     0.586400000000     0.535600000000     0          
O198     O      0.327600000000     0.432500000000     0.560600000000     0          
C199     C      0.351800000000     0.437900000000     0.598100000000     0          
C200     C      0.087600000000     0.475200000000     0.722400000000     0          
C201     C      0.134900000000     0.422000000000     0.721300000000     0          
C202     C      0.092900000000     0.535100000000     0.691700000000     0          
H203     H      0.048700000000     0.539200000000     0.677400000000     0          
H204     H      0.102900000000     0.579000000000     0.705500000000     0          
H205     H      0.130600000000     0.524900000000     0.673000000000     0          
C206     C      0.310800000000     0.448660000000     0.668030000000     0          
H207     H      0.357400000000     0.461700000000     0.674100000000     0          
C208     C      0.260100000000     0.445410000000     0.698570000000     0          
H209     H      0.272700000000     0.456300000000     0.725000000000     0          
C210     C      0.190500000000     0.425960000000     0.689550000000     0          
C211     C      0.171600000000     0.409750000000     0.649980000000     0          
H212     H      0.125000000000     0.396700000000     0.643900000000     0          
C213     C      0.222300000000     0.412990000000     0.619440000000     0          
H214     H      0.209600000000     0.402100000000     0.593000000000     0          
C215     C      0.291900000000     0.432450000000     0.628470000000     0          
H216     H      0.176800000000     0.280700000000     0.771400000000     0          
H217     H      0.231700000000     0.335700000000     0.754100000000     0          
H218     H      0.185600000000     0.289500000000     0.724500000000     0          
O219     O      0.465000000000     0.592800000000     0.607300000000     0          
O220     O      0.586400000000     0.460300000000     0.535600000000     0          
O221     O      0.432500000000     0.672400000000     0.560600000000     0          
C222     C      0.437900000000     0.648200000000     0.598100000000     0          
C223     C      0.475200000000     0.912400000000     0.722400000000     0          
C224     C      0.422000000000     0.865100000000     0.721300000000     0          
C225     C      0.535100000000     0.907100000000     0.691700000000     0          
H226     H      0.539200000000     0.951300000000     0.677400000000     0          
H227     H      0.579000000000     0.897100000000     0.705500000000     0          
H228     H      0.524900000000     0.869400000000     0.673000000000     0          
C229     C      0.448660000000     0.689200000000     0.668030000000     0          
H230     H      0.461700000000     0.642600000000     0.674100000000     0          
C231     C      0.445410000000     0.739900000000     0.698570000000     0          
H232     H      0.456300000000     0.727300000000     0.725000000000     0          
C233     C      0.425960000000     0.809500000000     0.689550000000     0          
C234     C      0.409750000000     0.828400000000     0.649980000000     0          
H235     H      0.396700000000     0.875000000000     0.643900000000     0          
C236     C      0.412990000000     0.777700000000     0.619440000000     0          
H237     H      0.402100000000     0.790400000000     0.593000000000     0          
C238     C      0.432450000000     0.708100000000     0.628470000000     0          
O239     O      0.535000000000     0.407200000000     0.607300000000     0          
O240     O      0.413600000000     0.539700000000     0.535600000000     0          
O241     O      0.567500000000     0.327600000000     0.560600000000     0          
C242     C      0.562100000000     0.351800000000     0.598100000000     0          
C243     C      0.524800000000     0.087600000000     0.722400000000     0          
C244     C      0.578000000000     0.134900000000     0.721300000000     0          
C245     C      0.464900000000     0.092900000000     0.691700000000     0          
H246     H      0.460800000000     0.048700000000     0.677400000000     0          
H247     H      0.421000000000     0.102900000000     0.705500000000     0          
H248     H      0.475100000000     0.130600000000     0.673000000000     0          
C249     C      0.551340000000     0.310800000000     0.668030000000     0          
H250     H      0.538300000000     0.357400000000     0.674100000000     0          
C251     C      0.554590000000     0.260100000000     0.698570000000     0          
H252     H      0.543700000000     0.272700000000     0.725000000000     0          
C253     C      0.574040000000     0.190500000000     0.689550000000     0          
C254     C      0.590250000000     0.171600000000     0.649980000000     0          
H255     H      0.603300000000     0.125000000000     0.643900000000     0          
C256     C      0.587010000000     0.222300000000     0.619440000000     0          
H257     H      0.597900000000     0.209600000000     0.593000000000     0          
C258     C      0.567550000000     0.291900000000     0.628470000000     0          
H259     H      0.719300000000     0.176800000000     0.771400000000     0          
H260     H      0.664300000000     0.231700000000     0.754100000000     0          
H261     H      0.710500000000     0.185600000000     0.724500000000     0          
O262     O      0.907200000000     0.035000000000     0.892700000000     0          
O263     O      0.039700000000     0.913600000000     0.964400000000     0          
O264     O      0.827600000000     0.067500000000     0.939400000000     0          
C265     C      0.851800000000     0.062100000000     0.901900000000     0          
C266     C      0.587600000000     0.024800000000     0.777600000000     0          
C267     C      0.634900000000     0.078000000000     0.778700000000     0          
C268     C      0.592900000000     0.964900000000     0.808300000000     0          
H269     H      0.548700000000     0.960800000000     0.822600000000     0          
H270     H      0.602900000000     0.921000000000     0.794500000000     0          
H271     H      0.630600000000     0.975100000000     0.827000000000     0          
C272     C      0.810800000000     0.051340000000     0.831970000000     0          
H273     H      0.857400000000     0.038300000000     0.825900000000     0          
C274     C      0.760100000000     0.054590000000     0.801430000000     0          
H275     H      0.772700000000     0.043700000000     0.775000000000     0          
C276     C      0.690500000000     0.074040000000     0.810450000000     0          
C277     C      0.671600000000     0.090250000000     0.850020000000     0          
H278     H      0.625000000000     0.103300000000     0.856100000000     0          
C279     C      0.722300000000     0.087010000000     0.880560000000     0          
H280     H      0.709600000000     0.097900000000     0.907000000000     0          
C281     C      0.791900000000     0.067550000000     0.871530000000     0          
O282     O      0.092800000000     0.965000000000     0.892700000000     0          
O283     O      0.960300000000     0.086400000000     0.964400000000     0          
O284     O      0.172400000000     0.932500000000     0.939400000000     0          
C285     C      0.148200000000     0.937900000000     0.901900000000     0          
C286     C      0.412400000000     0.975200000000     0.777600000000     0          
C287     C      0.365100000000     0.922000000000     0.778700000000     0          
C288     C      0.407100000000     0.035100000000     0.808300000000     0          
H289     H      0.451300000000     0.039200000000     0.822600000000     0          
H290     H      0.397100000000     0.079000000000     0.794500000000     0          
H291     H      0.369400000000     0.024900000000     0.827000000000     0          
C292     C      0.189200000000     0.948660000000     0.831970000000     0          
H293     H      0.142600000000     0.961700000000     0.825900000000     0          
C294     C      0.239900000000     0.945410000000     0.801430000000     0          
H295     H      0.227300000000     0.956300000000     0.775000000000     0          
C296     C      0.309500000000     0.925960000000     0.810450000000     0          
C297     C      0.328400000000     0.909750000000     0.850020000000     0          
H298     H      0.375000000000     0.896700000000     0.856100000000     0          
C299     C      0.277700000000     0.912990000000     0.880560000000     0          
H300     H      0.290400000000     0.902100000000     0.907000000000     0          
C301     C      0.208100000000     0.932450000000     0.871530000000     0          
H302     H      0.323200000000     0.780700000000     0.728600000000     0          
H303     H      0.268300000000     0.835700000000     0.745900000000     0          
H304     H      0.314400000000     0.789500000000     0.775500000000     0          
O305     O      0.035000000000     0.092800000000     0.892700000000     0          
O306     O      0.913600000000     0.960300000000     0.964400000000     0          
O307     O      0.067500000000     0.172400000000     0.939400000000     0          
C308     C      0.062100000000     0.148200000000     0.901900000000     0          
C309     C      0.024800000000     0.412400000000     0.777600000000     0          
C310     C      0.078000000000     0.365100000000     0.778700000000     0          
C311     C      0.964900000000     0.407100000000     0.808300000000     0          
H312     H      0.960800000000     0.451300000000     0.822600000000     0          
H313     H      0.921000000000     0.397100000000     0.794500000000     0          
H314     H      0.975100000000     0.369400000000     0.827000000000     0          
C315     C      0.051340000000     0.189200000000     0.831970000000     0          
H316     H      0.038300000000     0.142600000000     0.825900000000     0          
C317     C      0.054590000000     0.239900000000     0.801430000000     0          
H318     H      0.043700000000     0.227300000000     0.775000000000     0          
C319     C      0.074040000000     0.309500000000     0.810450000000     0          
C320     C      0.090250000000     0.328400000000     0.850020000000     0          
H321     H      0.103300000000     0.375000000000     0.856100000000     0          
C322     C      0.087010000000     0.277700000000     0.880560000000     0          
H323     H      0.097900000000     0.290400000000     0.907000000000     0          
C324     C      0.067550000000     0.208100000000     0.871530000000     0          
O325     O      0.965000000000     0.907200000000     0.892700000000     0          
O326     O      0.086400000000     0.039700000000     0.964400000000     0          
O327     O      0.932500000000     0.827600000000     0.939400000000     0          
C328     C      0.937900000000     0.851800000000     0.901900000000     0          
C329     C      0.975200000000     0.587600000000     0.777600000000     0          
C330     C      0.922000000000     0.634900000000     0.778700000000     0          
C331     C      0.035100000000     0.592900000000     0.808300000000     0          
H332     H      0.039200000000     0.548700000000     0.822600000000     0          
H333     H      0.079000000000     0.602900000000     0.794500000000     0          
H334     H      0.024900000000     0.630600000000     0.827000000000     0          
C335     C      0.948660000000     0.810800000000     0.831970000000     0          
H336     H      0.961700000000     0.857400000000     0.825900000000     0          
C337     C      0.945410000000     0.760100000000     0.801430000000     0          
H338     H      0.956300000000     0.772700000000     0.775000000000     0          
C339     C      0.925960000000     0.690500000000     0.810450000000     0          
C340     C      0.909750000000     0.671600000000     0.850020000000     0          
H341     H      0.896700000000     0.625000000000     0.856100000000     0          
C342     C      0.912990000000     0.722300000000     0.880560000000     0          
H343     H      0.902100000000     0.709600000000     0.907000000000     0          
C344     C      0.932450000000     0.791900000000     0.871530000000     0          
Zr345    Zr     0.500000000000     0.500000000000     0.426530000000     0          
Zr346    Zr     0.000000000000     0.000000000000     0.073470000000     0          
Zr347    Zr     0.500000000000     0.500000000000     0.573470000000     0          
Zr348    Zr     0.000000000000     0.000000000000     0.926530000000     0          
Zr349    Zr     0.623150000000     0.548020000000     0.500000000000     0          
Zr350    Zr     0.376850000000     0.451980000000     0.500000000000     0          
Zr351    Zr     0.451980000000     0.623150000000     0.500000000000     0          
Zr352    Zr     0.548020000000     0.376850000000     0.500000000000     0          
Zr353    Zr     0.876850000000     0.048020000000     0.000000000000     0          
Zr354    Zr     0.123150000000     0.951980000000     0.000000000000     0          
Zr355    Zr     0.048020000000     0.123150000000     0.000000000000     0          
Zr356    Zr     0.951980000000     0.876850000000     0.000000000000     0          
C357     C      0.028860000000     0.471140000000     0.250000000000     0          
C358     C      0.130300000000     0.369700000000     0.250000000000     0          
C359     C      0.186000000000     0.314000000000     0.250000000000     0          
C360     C      0.971140000000     0.528860000000     0.250000000000     0          
C361     C      0.869700000000     0.630300000000     0.250000000000     0          
C362     C      0.814000000000     0.686000000000     0.250000000000     0          
C363     C      0.528860000000     0.028860000000     0.250000000000     0          
C364     C      0.630300000000     0.130300000000     0.250000000000     0          
C365     C      0.686000000000     0.186000000000     0.250000000000     0          
C366     C      0.471140000000     0.971140000000     0.250000000000     0          
C367     C      0.369700000000     0.869700000000     0.250000000000     0          
C368     C      0.314000000000     0.814000000000     0.250000000000     0          
C369     C      0.971140000000     0.528860000000     0.750000000000     0          
C370     C      0.869700000000     0.630300000000     0.750000000000     0          
C371     C      0.814000000000     0.686000000000     0.750000000000     0          
C372     C      0.028860000000     0.471140000000     0.750000000000     0          
C373     C      0.130300000000     0.369700000000     0.750000000000     0          
C374     C      0.186000000000     0.314000000000     0.750000000000     0          
C375     C      0.471140000000     0.971140000000     0.750000000000     0          
C376     C      0.369700000000     0.869700000000     0.750000000000     0          
C377     C      0.314000000000     0.814000000000     0.750000000000     0          
C378     C      0.528860000000     0.028860000000     0.750000000000     0          
C379     C      0.630300000000     0.130300000000     0.750000000000     0          
C380     C      0.686000000000     0.186000000000     0.750000000000     0          


