data_NEVKUX

_audit_creation_method RASPA-1.0
_audit_creation_date 2020-11-2
_audit_author_name 'Rocio Bueno-Perez'

_cell_length_a    19.0243
_cell_length_b    19.0243
_cell_length_c    33.174
_cell_angle_alpha 90
_cell_angle_beta  90
_cell_angle_gamma 90
_cell_volume      12006.5

_symmetry_cell_setting          triclinic
_symmetry_space_group_name_Hall 'P 1'
_symmetry_space_group_name_H-M  'P 1'
_symmetry_Int_Tables_number     1

_symmetry_equiv_pos_as_xyz 'x,y,z'

loop_
_atom_site_label
_atom_site_type_symbol
_atom_site_fract_x
_atom_site_fract_y
_atom_site_fract_z
_atom_site_charge
O1       O      0.971700000000     0.092900000000     0.108500000000     0          
O2       O      0.939600000000     0.173600000000     0.060300000000     0          
O3       O      0.038100000000     0.083700000000     0.035800000000     0          
C4       C      0.973700000000     0.416100000000     0.222600000000     0          
C5       C      0.953400000000     0.193900000000     0.170200000000     0          
H6       H      0.969400000000     0.148300000000     0.174500000000     0          
C7       C      0.939700000000     0.153600000000     0.100700000000     0          
C8       C      0.950200000000     0.239200000000     0.203300000000     0          
H9       H      0.961400000000     0.227500000000     0.229800000000     0          
C10      C      0.922000000000     0.364500000000     0.220000000000     0          
C11      C      0.031000000000     0.411900000000     0.191000000000     0          
H12      H      0.064100000000     0.449300000000     0.195200000000     0          
H13      H      0.054800000000     0.367500000000     0.193200000000     0          
H14      H      0.010600000000     0.416200000000     0.164700000000     0          
C15      C      0.934000000000     0.212800000000     0.131000000000     0          
C16      C      0.927500000000     0.305100000000     0.189900000000     0          
C17      C      0.909900000000     0.277400000000     0.116300000000     0          
H18      H      0.898800000000     0.288900000000     0.089800000000     0          
C19      C      0.906300000000     0.320700000000     0.150200000000     0          
H20      H      0.887600000000     0.365300000000     0.146100000000     0          
H21      H      0.824100000000     0.282900000000     0.228500000000     0          
H22      H      0.816200000000     0.290800000000     0.275300000000     0          
H23      H      0.770200000000     0.336800000000     0.246300000000     0          
O24      O      0.028300000000     0.907100000000     0.108500000000     0          
O25      O      0.060400000000     0.826400000000     0.060300000000     0          
O26      O      0.961900000000     0.916300000000     0.035800000000     0          
C27      C      0.026300000000     0.583900000000     0.222600000000     0          
C28      C      0.046600000000     0.806100000000     0.170200000000     0          
H29      H      0.030600000000     0.851700000000     0.174500000000     0          
C30      C      0.060300000000     0.846400000000     0.100700000000     0          
C31      C      0.049800000000     0.760800000000     0.203300000000     0          
H32      H      0.038600000000     0.772500000000     0.229800000000     0          
C33      C      0.078000000000     0.635500000000     0.220000000000     0          
C34      C      0.969000000000     0.588100000000     0.191000000000     0          
H35      H      0.935900000000     0.550700000000     0.195200000000     0          
H36      H      0.945200000000     0.632500000000     0.193200000000     0          
H37      H      0.989400000000     0.583800000000     0.164700000000     0          
C38      C      0.066000000000     0.787200000000     0.131000000000     0          
C39      C      0.072500000000     0.694900000000     0.189900000000     0          
C40      C      0.090100000000     0.722600000000     0.116300000000     0          
H41      H      0.101200000000     0.711100000000     0.089800000000     0          
C42      C      0.093700000000     0.679300000000     0.150200000000     0          
H43      H      0.112400000000     0.634700000000     0.146100000000     0          
O44      O      0.907100000000     0.971700000000     0.108500000000     0          
O45      O      0.826400000000     0.939600000000     0.060300000000     0          
O46      O      0.916300000000     0.038100000000     0.035800000000     0          
C47      C      0.583900000000     0.973700000000     0.222600000000     0          
C48      C      0.806100000000     0.953400000000     0.170200000000     0          
H49      H      0.851700000000     0.969400000000     0.174500000000     0          
C50      C      0.846400000000     0.939700000000     0.100700000000     0          
C51      C      0.760800000000     0.950200000000     0.203300000000     0          
H52      H      0.772500000000     0.961400000000     0.229800000000     0          
C53      C      0.635500000000     0.922000000000     0.220000000000     0          
C54      C      0.588100000000     0.031000000000     0.191000000000     0          
H55      H      0.550700000000     0.064100000000     0.195200000000     0          
H56      H      0.632500000000     0.054800000000     0.193200000000     0          
H57      H      0.583800000000     0.010600000000     0.164700000000     0          
C58      C      0.787200000000     0.934000000000     0.131000000000     0          
C59      C      0.694900000000     0.927500000000     0.189900000000     0          
C60      C      0.722600000000     0.909900000000     0.116300000000     0          
H61      H      0.711100000000     0.898800000000     0.089800000000     0          
C62      C      0.679300000000     0.906300000000     0.150200000000     0          
H63      H      0.634700000000     0.887600000000     0.146100000000     0          
O64      O      0.092900000000     0.028300000000     0.108500000000     0          
O65      O      0.173600000000     0.060400000000     0.060300000000     0          
O66      O      0.083700000000     0.961900000000     0.035800000000     0          
C67      C      0.416100000000     0.026300000000     0.222600000000     0          
C68      C      0.193900000000     0.046600000000     0.170200000000     0          
H69      H      0.148300000000     0.030600000000     0.174500000000     0          
C70      C      0.153600000000     0.060300000000     0.100700000000     0          
C71      C      0.239200000000     0.049800000000     0.203300000000     0          
H72      H      0.227500000000     0.038600000000     0.229800000000     0          
C73      C      0.364500000000     0.078000000000     0.220000000000     0          
C74      C      0.411900000000     0.969000000000     0.191000000000     0          
H75      H      0.449300000000     0.935900000000     0.195200000000     0          
H76      H      0.367500000000     0.945200000000     0.193200000000     0          
H77      H      0.416200000000     0.989400000000     0.164700000000     0          
C78      C      0.212800000000     0.066000000000     0.131000000000     0          
C79      C      0.305100000000     0.072500000000     0.189900000000     0          
C80      C      0.277400000000     0.090100000000     0.116300000000     0          
H81      H      0.288900000000     0.101200000000     0.089800000000     0          
C82      C      0.320700000000     0.093700000000     0.150200000000     0          
H83      H      0.365300000000     0.112400000000     0.146100000000     0          
H84      H      0.282900000000     0.175900000000     0.228500000000     0          
H85      H      0.290800000000     0.183800000000     0.275300000000     0          
H86      H      0.336800000000     0.229800000000     0.246300000000     0          
O87      O      0.528300000000     0.592900000000     0.391500000000     0          
O88      O      0.560400000000     0.673600000000     0.439700000000     0          
O89      O      0.461900000000     0.583700000000     0.464200000000     0          
C90      C      0.526300000000     0.916100000000     0.277400000000     0          
C91      C      0.546600000000     0.693900000000     0.329800000000     0          
H92      H      0.530600000000     0.648300000000     0.325500000000     0          
C93      C      0.560300000000     0.653600000000     0.399300000000     0          
C94      C      0.549800000000     0.739200000000     0.296700000000     0          
H95      H      0.538600000000     0.727500000000     0.270200000000     0          
C96      C      0.578000000000     0.864500000000     0.280000000000     0          
C97      C      0.469000000000     0.911900000000     0.309000000000     0          
H98      H      0.435900000000     0.949300000000     0.304800000000     0          
H99      H      0.445200000000     0.867500000000     0.306800000000     0          
H100     H      0.489400000000     0.916200000000     0.335300000000     0          
C101     C      0.566000000000     0.712800000000     0.369000000000     0          
C102     C      0.572500000000     0.805100000000     0.310100000000     0          
C103     C      0.590100000000     0.777400000000     0.383700000000     0          
H104     H      0.601200000000     0.788900000000     0.410200000000     0          
C105     C      0.593700000000     0.820700000000     0.349800000000     0          
H106     H      0.612400000000     0.865300000000     0.353900000000     0          
H107     H      0.675900000000     0.782900000000     0.271500000000     0          
H108     H      0.683800000000     0.790800000000     0.224700000000     0          
H109     H      0.729800000000     0.836800000000     0.253700000000     0          
O110     O      0.471700000000     0.407100000000     0.391500000000     0          
O111     O      0.439600000000     0.326400000000     0.439700000000     0          
O112     O      0.538100000000     0.416300000000     0.464200000000     0          
C113     C      0.473700000000     0.083900000000     0.277400000000     0          
C114     C      0.453400000000     0.306100000000     0.329800000000     0          
H115     H      0.469400000000     0.351700000000     0.325500000000     0          
C116     C      0.439700000000     0.346400000000     0.399300000000     0          
C117     C      0.450200000000     0.260800000000     0.296700000000     0          
H118     H      0.461400000000     0.272500000000     0.270200000000     0          
C119     C      0.422000000000     0.135500000000     0.280000000000     0          
C120     C      0.531000000000     0.088100000000     0.309000000000     0          
H121     H      0.564100000000     0.050700000000     0.304800000000     0          
H122     H      0.554800000000     0.132500000000     0.306800000000     0          
H123     H      0.510600000000     0.083800000000     0.335300000000     0          
C124     C      0.434000000000     0.287200000000     0.369000000000     0          
C125     C      0.427500000000     0.194900000000     0.310100000000     0          
C126     C      0.409900000000     0.222600000000     0.383700000000     0          
H127     H      0.398800000000     0.211100000000     0.410200000000     0          
C128     C      0.406300000000     0.179300000000     0.349800000000     0          
H129     H      0.387600000000     0.134700000000     0.353900000000     0          
O130     O      0.592900000000     0.471700000000     0.391500000000     0          
O131     O      0.673600000000     0.439600000000     0.439700000000     0          
O132     O      0.583700000000     0.538100000000     0.464200000000     0          
C133     C      0.916100000000     0.473700000000     0.277400000000     0          
C134     C      0.693900000000     0.453400000000     0.329800000000     0          
H135     H      0.648300000000     0.469400000000     0.325500000000     0          
C136     C      0.653600000000     0.439700000000     0.399300000000     0          
C137     C      0.739200000000     0.450200000000     0.296700000000     0          
H138     H      0.727500000000     0.461400000000     0.270200000000     0          
C139     C      0.864500000000     0.422000000000     0.280000000000     0          
C140     C      0.911900000000     0.531000000000     0.309000000000     0          
H141     H      0.949300000000     0.564100000000     0.304800000000     0          
H142     H      0.867500000000     0.554800000000     0.306800000000     0          
H143     H      0.916200000000     0.510600000000     0.335300000000     0          
C144     C      0.712800000000     0.434000000000     0.369000000000     0          
C145     C      0.805100000000     0.427500000000     0.310100000000     0          
C146     C      0.777400000000     0.409900000000     0.383700000000     0          
H147     H      0.788900000000     0.398800000000     0.410200000000     0          
C148     C      0.820700000000     0.406300000000     0.349800000000     0          
H149     H      0.865300000000     0.387600000000     0.353900000000     0          
O150     O      0.407100000000     0.528300000000     0.391500000000     0          
O151     O      0.326400000000     0.560400000000     0.439700000000     0          
O152     O      0.416300000000     0.461900000000     0.464200000000     0          
C153     C      0.083900000000     0.526300000000     0.277400000000     0          
C154     C      0.306100000000     0.546600000000     0.329800000000     0          
H155     H      0.351700000000     0.530600000000     0.325500000000     0          
C156     C      0.346400000000     0.560300000000     0.399300000000     0          
C157     C      0.260800000000     0.549800000000     0.296700000000     0          
H158     H      0.272500000000     0.538600000000     0.270200000000     0          
C159     C      0.135500000000     0.578000000000     0.280000000000     0          
C160     C      0.088100000000     0.469000000000     0.309000000000     0          
H161     H      0.050700000000     0.435900000000     0.304800000000     0          
H162     H      0.132500000000     0.445200000000     0.306800000000     0          
H163     H      0.083800000000     0.489400000000     0.335300000000     0          
C164     C      0.287200000000     0.566000000000     0.369000000000     0          
C165     C      0.194900000000     0.572500000000     0.310100000000     0          
C166     C      0.222600000000     0.590100000000     0.383700000000     0          
H167     H      0.211100000000     0.601200000000     0.410200000000     0          
C168     C      0.179300000000     0.593700000000     0.349800000000     0          
H169     H      0.134700000000     0.612400000000     0.353900000000     0          
H170     H      0.217100000000     0.675900000000     0.271500000000     0          
H171     H      0.209200000000     0.683800000000     0.224700000000     0          
H172     H      0.163200000000     0.729800000000     0.253700000000     0          
O173     O      0.028300000000     0.907100000000     0.891500000000     0          
O174     O      0.060400000000     0.826400000000     0.939700000000     0          
O175     O      0.961900000000     0.916300000000     0.964200000000     0          
C176     C      0.026300000000     0.583900000000     0.777400000000     0          
C177     C      0.046600000000     0.806100000000     0.829800000000     0          
H178     H      0.030600000000     0.851700000000     0.825500000000     0          
C179     C      0.060300000000     0.846400000000     0.899300000000     0          
C180     C      0.049800000000     0.760800000000     0.796700000000     0          
H181     H      0.038600000000     0.772500000000     0.770200000000     0          
C182     C      0.078000000000     0.635500000000     0.780000000000     0          
C183     C      0.969000000000     0.588100000000     0.809000000000     0          
H184     H      0.935900000000     0.550700000000     0.804800000000     0          
H185     H      0.945200000000     0.632500000000     0.806800000000     0          
H186     H      0.989400000000     0.583800000000     0.835300000000     0          
C187     C      0.066000000000     0.787200000000     0.869000000000     0          
C188     C      0.072500000000     0.694900000000     0.810100000000     0          
C189     C      0.090100000000     0.722600000000     0.883700000000     0          
H190     H      0.101200000000     0.711100000000     0.910200000000     0          
C191     C      0.093700000000     0.679300000000     0.849800000000     0          
H192     H      0.112400000000     0.634700000000     0.853900000000     0          
O193     O      0.971700000000     0.092900000000     0.891500000000     0          
O194     O      0.939600000000     0.173600000000     0.939700000000     0          
O195     O      0.038100000000     0.083700000000     0.964200000000     0          
C196     C      0.973700000000     0.416100000000     0.777400000000     0          
C197     C      0.953400000000     0.193900000000     0.829800000000     0          
H198     H      0.969400000000     0.148300000000     0.825500000000     0          
C199     C      0.939700000000     0.153600000000     0.899300000000     0          
C200     C      0.950200000000     0.239200000000     0.796700000000     0          
H201     H      0.961400000000     0.227500000000     0.770200000000     0          
C202     C      0.922000000000     0.364500000000     0.780000000000     0          
C203     C      0.031000000000     0.411900000000     0.809000000000     0          
H204     H      0.064100000000     0.449300000000     0.804800000000     0          
H205     H      0.054800000000     0.367500000000     0.806800000000     0          
H206     H      0.010600000000     0.416200000000     0.835300000000     0          
C207     C      0.934000000000     0.212800000000     0.869000000000     0          
C208     C      0.927500000000     0.305100000000     0.810100000000     0          
C209     C      0.909900000000     0.277400000000     0.883700000000     0          
H210     H      0.898800000000     0.288900000000     0.910200000000     0          
C211     C      0.906300000000     0.320700000000     0.849800000000     0          
H212     H      0.887600000000     0.365300000000     0.853900000000     0          
H213     H      0.824100000000     0.282900000000     0.771500000000     0          
H214     H      0.816200000000     0.290800000000     0.724700000000     0          
H215     H      0.770200000000     0.336800000000     0.753700000000     0          
O216     O      0.092900000000     0.028300000000     0.891500000000     0          
O217     O      0.173600000000     0.060400000000     0.939700000000     0          
O218     O      0.083700000000     0.961900000000     0.964200000000     0          
C219     C      0.416100000000     0.026300000000     0.777400000000     0          
C220     C      0.193900000000     0.046600000000     0.829800000000     0          
H221     H      0.148300000000     0.030600000000     0.825500000000     0          
C222     C      0.153600000000     0.060300000000     0.899300000000     0          
C223     C      0.239200000000     0.049800000000     0.796700000000     0          
H224     H      0.227500000000     0.038600000000     0.770200000000     0          
C225     C      0.364500000000     0.078000000000     0.780000000000     0          
C226     C      0.411900000000     0.969000000000     0.809000000000     0          
H227     H      0.449300000000     0.935900000000     0.804800000000     0          
H228     H      0.367500000000     0.945200000000     0.806800000000     0          
H229     H      0.416200000000     0.989400000000     0.835300000000     0          
C230     C      0.212800000000     0.066000000000     0.869000000000     0          
C231     C      0.305100000000     0.072500000000     0.810100000000     0          
C232     C      0.277400000000     0.090100000000     0.883700000000     0          
H233     H      0.288900000000     0.101200000000     0.910200000000     0          
C234     C      0.320700000000     0.093700000000     0.849800000000     0          
H235     H      0.365300000000     0.112400000000     0.853900000000     0          
O236     O      0.907100000000     0.971700000000     0.891500000000     0          
O237     O      0.826400000000     0.939600000000     0.939700000000     0          
O238     O      0.916300000000     0.038100000000     0.964200000000     0          
C239     C      0.583900000000     0.973700000000     0.777400000000     0          
C240     C      0.806100000000     0.953400000000     0.829800000000     0          
H241     H      0.851700000000     0.969400000000     0.825500000000     0          
C242     C      0.846400000000     0.939700000000     0.899300000000     0          
C243     C      0.760800000000     0.950200000000     0.796700000000     0          
H244     H      0.772500000000     0.961400000000     0.770200000000     0          
C245     C      0.635500000000     0.922000000000     0.780000000000     0          
C246     C      0.588100000000     0.031000000000     0.809000000000     0          
H247     H      0.550700000000     0.064100000000     0.804800000000     0          
H248     H      0.632500000000     0.054800000000     0.806800000000     0          
H249     H      0.583800000000     0.010600000000     0.835300000000     0          
C250     C      0.787200000000     0.934000000000     0.869000000000     0          
C251     C      0.694900000000     0.927500000000     0.810100000000     0          
C252     C      0.722600000000     0.909900000000     0.883700000000     0          
H253     H      0.711100000000     0.898800000000     0.910200000000     0          
C254     C      0.679300000000     0.906300000000     0.849800000000     0          
H255     H      0.634700000000     0.887600000000     0.853900000000     0          
O256     O      0.471700000000     0.407100000000     0.608500000000     0          
O257     O      0.439600000000     0.326400000000     0.560300000000     0          
O258     O      0.538100000000     0.416300000000     0.535800000000     0          
C259     C      0.473700000000     0.083900000000     0.722600000000     0          
C260     C      0.453400000000     0.306100000000     0.670200000000     0          
H261     H      0.469400000000     0.351700000000     0.674500000000     0          
C262     C      0.439700000000     0.346400000000     0.600700000000     0          
C263     C      0.450200000000     0.260800000000     0.703300000000     0          
H264     H      0.461400000000     0.272500000000     0.729800000000     0          
C265     C      0.422000000000     0.135500000000     0.720000000000     0          
C266     C      0.531000000000     0.088100000000     0.691000000000     0          
H267     H      0.564100000000     0.050700000000     0.695200000000     0          
H268     H      0.554800000000     0.132500000000     0.693200000000     0          
H269     H      0.510600000000     0.083800000000     0.664700000000     0          
C270     C      0.434000000000     0.287200000000     0.631000000000     0          
C271     C      0.427500000000     0.194900000000     0.689900000000     0          
C272     C      0.409900000000     0.222600000000     0.616300000000     0          
H273     H      0.398800000000     0.211100000000     0.589800000000     0          
C274     C      0.406300000000     0.179300000000     0.650200000000     0          
H275     H      0.387600000000     0.134700000000     0.646100000000     0          
H276     H      0.324100000000     0.217100000000     0.728500000000     0          
H277     H      0.316200000000     0.209200000000     0.775300000000     0          
H278     H      0.270200000000     0.163200000000     0.746300000000     0          
O279     O      0.528300000000     0.592900000000     0.608500000000     0          
O280     O      0.560400000000     0.673600000000     0.560300000000     0          
O281     O      0.461900000000     0.583700000000     0.535800000000     0          
C282     C      0.526300000000     0.916100000000     0.722600000000     0          
C283     C      0.546600000000     0.693900000000     0.670200000000     0          
H284     H      0.530600000000     0.648300000000     0.674500000000     0          
C285     C      0.560300000000     0.653600000000     0.600700000000     0          
C286     C      0.549800000000     0.739200000000     0.703300000000     0          
H287     H      0.538600000000     0.727500000000     0.729800000000     0          
C288     C      0.578000000000     0.864500000000     0.720000000000     0          
C289     C      0.469000000000     0.911900000000     0.691000000000     0          
H290     H      0.435900000000     0.949300000000     0.695200000000     0          
H291     H      0.445200000000     0.867500000000     0.693200000000     0          
H292     H      0.489400000000     0.916200000000     0.664700000000     0          
C293     C      0.566000000000     0.712800000000     0.631000000000     0          
C294     C      0.572500000000     0.805100000000     0.689900000000     0          
C295     C      0.590100000000     0.777400000000     0.616300000000     0          
H296     H      0.601200000000     0.788900000000     0.589800000000     0          
C297     C      0.593700000000     0.820700000000     0.650200000000     0          
H298     H      0.612400000000     0.865300000000     0.646100000000     0          
H299     H      0.675900000000     0.782900000000     0.728500000000     0          
H300     H      0.683800000000     0.790800000000     0.775300000000     0          
H301     H      0.729800000000     0.836800000000     0.746300000000     0          
O302     O      0.407100000000     0.528300000000     0.608500000000     0          
O303     O      0.326400000000     0.560400000000     0.560300000000     0          
O304     O      0.416300000000     0.461900000000     0.535800000000     0          
C305     C      0.083900000000     0.526300000000     0.722600000000     0          
C306     C      0.306100000000     0.546600000000     0.670200000000     0          
H307     H      0.351700000000     0.530600000000     0.674500000000     0          
C308     C      0.346400000000     0.560300000000     0.600700000000     0          
C309     C      0.260800000000     0.549800000000     0.703300000000     0          
H310     H      0.272500000000     0.538600000000     0.729800000000     0          
C311     C      0.135500000000     0.578000000000     0.720000000000     0          
C312     C      0.088100000000     0.469000000000     0.691000000000     0          
H313     H      0.050700000000     0.435900000000     0.695200000000     0          
H314     H      0.132500000000     0.445200000000     0.693200000000     0          
H315     H      0.083800000000     0.489400000000     0.664700000000     0          
C316     C      0.287200000000     0.566000000000     0.631000000000     0          
C317     C      0.194900000000     0.572500000000     0.689900000000     0          
C318     C      0.222600000000     0.590100000000     0.616300000000     0          
H319     H      0.211100000000     0.601200000000     0.589800000000     0          
C320     C      0.179300000000     0.593700000000     0.650200000000     0          
H321     H      0.134700000000     0.612400000000     0.646100000000     0          
H322     H      0.217100000000     0.675900000000     0.728500000000     0          
H323     H      0.209200000000     0.683800000000     0.775300000000     0          
H324     H      0.163200000000     0.729800000000     0.746300000000     0          
O325     O      0.592900000000     0.471700000000     0.608500000000     0          
O326     O      0.673600000000     0.439600000000     0.560300000000     0          
O327     O      0.583700000000     0.538100000000     0.535800000000     0          
C328     C      0.916100000000     0.473700000000     0.722600000000     0          
C329     C      0.693900000000     0.453400000000     0.670200000000     0          
H330     H      0.648300000000     0.469400000000     0.674500000000     0          
C331     C      0.653600000000     0.439700000000     0.600700000000     0          
C332     C      0.739200000000     0.450200000000     0.703300000000     0          
H333     H      0.727500000000     0.461400000000     0.729800000000     0          
C334     C      0.864500000000     0.422000000000     0.720000000000     0          
C335     C      0.911900000000     0.531000000000     0.691000000000     0          
H336     H      0.949300000000     0.564100000000     0.695200000000     0          
H337     H      0.867500000000     0.554800000000     0.693200000000     0          
H338     H      0.916200000000     0.510600000000     0.664700000000     0          
C339     C      0.712800000000     0.434000000000     0.631000000000     0          
C340     C      0.805100000000     0.427500000000     0.689900000000     0          
C341     C      0.777400000000     0.409900000000     0.616300000000     0          
H342     H      0.788900000000     0.398800000000     0.589800000000     0          
C343     C      0.820700000000     0.406300000000     0.650200000000     0          
H344     H      0.865300000000     0.387600000000     0.646100000000     0          
Zr345    Zr     0.123850000000     0.044960000000     0.000000000000     0          
Zr346    Zr     0.876150000000     0.955040000000     0.000000000000     0          
Zr347    Zr     0.955040000000     0.123850000000     0.000000000000     0          
Zr348    Zr     0.044960000000     0.876150000000     0.000000000000     0          
Zr349    Zr     0.376150000000     0.544960000000     0.500000000000     0          
Zr350    Zr     0.623850000000     0.455040000000     0.500000000000     0          
Zr351    Zr     0.544960000000     0.623850000000     0.500000000000     0          
Zr352    Zr     0.455040000000     0.376150000000     0.500000000000     0          
Zr353    Zr     0.000000000000     0.000000000000     0.073510000000     0          
Zr354    Zr     0.500000000000     0.500000000000     0.426490000000     0          
Zr355    Zr     0.000000000000     0.000000000000     0.926490000000     0          
Zr356    Zr     0.500000000000     0.500000000000     0.573510000000     0          
C357     C      0.971900000000     0.471900000000     0.250000000000     0          
C358     C      0.871300000000     0.371300000000     0.250000000000     0          
C359     C      0.815400000000     0.315400000000     0.250000000000     0          
C360     C      0.028100000000     0.528100000000     0.250000000000     0          
C361     C      0.128700000000     0.628700000000     0.250000000000     0          
C362     C      0.184600000000     0.684600000000     0.250000000000     0          
C363     C      0.528100000000     0.971900000000     0.250000000000     0          
C364     C      0.628700000000     0.871300000000     0.250000000000     0          
C365     C      0.684600000000     0.815400000000     0.250000000000     0          
C366     C      0.471900000000     0.028100000000     0.250000000000     0          
C367     C      0.371300000000     0.128700000000     0.250000000000     0          
C368     C      0.315400000000     0.184600000000     0.250000000000     0          
C369     C      0.028100000000     0.528100000000     0.750000000000     0          
C370     C      0.128700000000     0.628700000000     0.750000000000     0          
C371     C      0.184600000000     0.684600000000     0.750000000000     0          
C372     C      0.971900000000     0.471900000000     0.750000000000     0          
C373     C      0.871300000000     0.371300000000     0.750000000000     0          
C374     C      0.815400000000     0.315400000000     0.750000000000     0          
C375     C      0.471900000000     0.028100000000     0.750000000000     0          
C376     C      0.371300000000     0.128700000000     0.750000000000     0          
C377     C      0.315400000000     0.184600000000     0.750000000000     0          
C378     C      0.528100000000     0.971900000000     0.750000000000     0          
C379     C      0.628700000000     0.871300000000     0.750000000000     0          
C380     C      0.684600000000     0.815400000000     0.750000000000     0          


