data_NEVSUF01

_audit_creation_method RASPA-1.0
_audit_creation_date 2020-11-2
_audit_author_name 'Rocio Bueno-Perez'

_cell_length_a    19.188
_cell_length_b    19.188
_cell_length_c    32.964
_cell_angle_alpha 90
_cell_angle_beta  90
_cell_angle_gamma 90
_cell_volume      12136.7

_symmetry_cell_setting          triclinic
_symmetry_space_group_name_Hall 'P 1'
_symmetry_space_group_name_H-M  'P 1'
_symmetry_Int_Tables_number     1

_symmetry_equiv_pos_as_xyz 'x,y,z'

loop_
_atom_site_label
_atom_site_type_symbol
_atom_site_fract_x
_atom_site_fract_y
_atom_site_fract_z
_atom_site_charge
O1       O      0.970800000000     0.092200000000     0.110000000000     0          
O2       O      0.940200000000     0.173300000000     0.061400000000     0          
O3       O      0.036800000000     0.084300000000     0.036400000000     0          
C4       C      0.975600000000     0.415600000000     0.222600000000     0          
C5       C      0.956600000000     0.197700000000     0.170400000000     0          
H6       H      0.975800000000     0.154100000000     0.175600000000     0          
C7       C      0.942000000000     0.153600000000     0.099600000000     0          
C8       C      0.951100000000     0.242800000000     0.203400000000     0          
H9       H      0.962300000000     0.231300000000     0.230000000000     0          
C10      C      0.922500000000     0.365500000000     0.222400000000     0          
C11      C      0.035600000000     0.411100000000     0.192300000000     0          
H12      H      0.020000000000     0.427000000000     0.166200000000     0          
H13      H      0.050900000000     0.363600000000     0.190200000000     0          
H14      H      0.073500000000     0.439700000000     0.201400000000     0          
C15      C      0.936400000000     0.211100000000     0.130500000000     0          
C16      C      0.926000000000     0.308100000000     0.190700000000     0          
C17      C      0.910800000000     0.274900000000     0.116900000000     0          
H18      H      0.899400000000     0.286200000000     0.090300000000     0          
C19      C      0.905300000000     0.318700000000     0.150400000000     0          
H20      H      0.884700000000     0.361600000000     0.145200000000     0          
H21      H      0.821200000000     0.278100000000     0.229100000000     0          
H22      H      0.810900000000     0.288400000000     0.275900000000     0          
H23      H      0.766800000000     0.332500000000     0.245100000000     0          
O24      O      0.029200000000     0.907800000000     0.110000000000     0          
O25      O      0.059800000000     0.826700000000     0.061400000000     0          
O26      O      0.963200000000     0.915700000000     0.036400000000     0          
C27      C      0.024400000000     0.584400000000     0.222600000000     0          
C28      C      0.043400000000     0.802300000000     0.170400000000     0          
H29      H      0.024200000000     0.845900000000     0.175600000000     0          
C30      C      0.058000000000     0.846400000000     0.099600000000     0          
C31      C      0.048900000000     0.757200000000     0.203400000000     0          
H32      H      0.037700000000     0.768700000000     0.230000000000     0          
C33      C      0.077500000000     0.634500000000     0.222400000000     0          
C34      C      0.964400000000     0.588900000000     0.192300000000     0          
H35      H      0.980000000000     0.573000000000     0.166200000000     0          
H36      H      0.949100000000     0.636400000000     0.190200000000     0          
H37      H      0.926500000000     0.560300000000     0.201400000000     0          
C38      C      0.063600000000     0.788900000000     0.130500000000     0          
C39      C      0.074000000000     0.691900000000     0.190700000000     0          
C40      C      0.089200000000     0.725100000000     0.116900000000     0          
H41      H      0.100600000000     0.713800000000     0.090300000000     0          
C42      C      0.094700000000     0.681300000000     0.150400000000     0          
H43      H      0.115300000000     0.638400000000     0.145200000000     0          
H44      H      0.178800000000     0.721900000000     0.229100000000     0          
H45      H      0.189100000000     0.711600000000     0.275900000000     0          
H46      H      0.233200000000     0.667500000000     0.245100000000     0          
O47      O      0.907800000000     0.970800000000     0.110000000000     0          
O48      O      0.826700000000     0.940200000000     0.061400000000     0          
O49      O      0.915700000000     0.036800000000     0.036400000000     0          
C50      C      0.584400000000     0.975600000000     0.222600000000     0          
C51      C      0.802300000000     0.956600000000     0.170400000000     0          
H52      H      0.845900000000     0.975800000000     0.175600000000     0          
C53      C      0.846400000000     0.942000000000     0.099600000000     0          
C54      C      0.757200000000     0.951100000000     0.203400000000     0          
H55      H      0.768700000000     0.962300000000     0.230000000000     0          
C56      C      0.634500000000     0.922500000000     0.222400000000     0          
C57      C      0.588900000000     0.035600000000     0.192300000000     0          
H58      H      0.573000000000     0.020000000000     0.166200000000     0          
H59      H      0.636400000000     0.050900000000     0.190200000000     0          
H60      H      0.560300000000     0.073500000000     0.201400000000     0          
C61      C      0.788900000000     0.936400000000     0.130500000000     0          
C62      C      0.691900000000     0.926000000000     0.190700000000     0          
C63      C      0.725100000000     0.910800000000     0.116900000000     0          
H64      H      0.713800000000     0.899400000000     0.090300000000     0          
C65      C      0.681300000000     0.905300000000     0.150400000000     0          
H66      H      0.638400000000     0.884700000000     0.145200000000     0          
O67      O      0.092200000000     0.029200000000     0.110000000000     0          
O68      O      0.173300000000     0.059800000000     0.061400000000     0          
O69      O      0.084300000000     0.963200000000     0.036400000000     0          
C70      C      0.415600000000     0.024400000000     0.222600000000     0          
C71      C      0.197700000000     0.043400000000     0.170400000000     0          
H72      H      0.154100000000     0.024200000000     0.175600000000     0          
C73      C      0.153600000000     0.058000000000     0.099600000000     0          
C74      C      0.242800000000     0.048900000000     0.203400000000     0          
H75      H      0.231300000000     0.037700000000     0.230000000000     0          
C76      C      0.365500000000     0.077500000000     0.222400000000     0          
C77      C      0.411100000000     0.964400000000     0.192300000000     0          
H78      H      0.427000000000     0.980000000000     0.166200000000     0          
H79      H      0.363600000000     0.949100000000     0.190200000000     0          
H80      H      0.439700000000     0.926500000000     0.201400000000     0          
C81      C      0.211100000000     0.063600000000     0.130500000000     0          
C82      C      0.308100000000     0.074000000000     0.190700000000     0          
C83      C      0.274900000000     0.089200000000     0.116900000000     0          
H84      H      0.286200000000     0.100600000000     0.090300000000     0          
C85      C      0.318700000000     0.094700000000     0.150400000000     0          
H86      H      0.361600000000     0.115300000000     0.145200000000     0          
O87      O      0.529200000000     0.592200000000     0.390000000000     0          
O88      O      0.559800000000     0.673300000000     0.438600000000     0          
O89      O      0.463200000000     0.584300000000     0.463600000000     0          
C90      C      0.524400000000     0.915600000000     0.277400000000     0          
C91      C      0.543400000000     0.697700000000     0.329600000000     0          
H92      H      0.524200000000     0.654100000000     0.324400000000     0          
C93      C      0.558000000000     0.653600000000     0.400400000000     0          
C94      C      0.548900000000     0.742800000000     0.296600000000     0          
H95      H      0.537700000000     0.731300000000     0.270000000000     0          
C96      C      0.577500000000     0.865500000000     0.277600000000     0          
C97      C      0.464400000000     0.911100000000     0.307700000000     0          
H98      H      0.480000000000     0.927000000000     0.333800000000     0          
H99      H      0.449100000000     0.863600000000     0.309800000000     0          
H100     H      0.426500000000     0.939700000000     0.298600000000     0          
C101     C      0.563600000000     0.711100000000     0.369500000000     0          
C102     C      0.574000000000     0.808100000000     0.309300000000     0          
C103     C      0.589200000000     0.774900000000     0.383100000000     0          
H104     H      0.600600000000     0.786200000000     0.409700000000     0          
C105     C      0.594700000000     0.818700000000     0.349600000000     0          
H106     H      0.615300000000     0.861600000000     0.354800000000     0          
H107     H      0.678800000000     0.778100000000     0.270900000000     0          
H108     H      0.689100000000     0.788400000000     0.224100000000     0          
H109     H      0.733200000000     0.832500000000     0.254900000000     0          
O110     O      0.470800000000     0.407800000000     0.390000000000     0          
O111     O      0.440200000000     0.326700000000     0.438600000000     0          
O112     O      0.536800000000     0.415700000000     0.463600000000     0          
C113     C      0.475600000000     0.084400000000     0.277400000000     0          
C114     C      0.456600000000     0.302300000000     0.329600000000     0          
H115     H      0.475800000000     0.345900000000     0.324400000000     0          
C116     C      0.442000000000     0.346400000000     0.400400000000     0          
C117     C      0.451100000000     0.257200000000     0.296600000000     0          
H118     H      0.462300000000     0.268700000000     0.270000000000     0          
C119     C      0.422500000000     0.134500000000     0.277600000000     0          
C120     C      0.535600000000     0.088900000000     0.307700000000     0          
H121     H      0.520000000000     0.073000000000     0.333800000000     0          
H122     H      0.550900000000     0.136400000000     0.309800000000     0          
H123     H      0.573500000000     0.060300000000     0.298600000000     0          
C124     C      0.436400000000     0.288900000000     0.369500000000     0          
C125     C      0.426000000000     0.191900000000     0.309300000000     0          
C126     C      0.410800000000     0.225100000000     0.383100000000     0          
H127     H      0.399400000000     0.213800000000     0.409700000000     0          
C128     C      0.405300000000     0.181300000000     0.349600000000     0          
H129     H      0.384700000000     0.138400000000     0.354800000000     0          
H130     H      0.321200000000     0.221900000000     0.270900000000     0          
H131     H      0.310900000000     0.211600000000     0.224100000000     0          
H132     H      0.266800000000     0.167500000000     0.254900000000     0          
O133     O      0.592200000000     0.470800000000     0.390000000000     0          
O134     O      0.673300000000     0.440200000000     0.438600000000     0          
O135     O      0.584300000000     0.536800000000     0.463600000000     0          
C136     C      0.915600000000     0.475600000000     0.277400000000     0          
C137     C      0.697700000000     0.456600000000     0.329600000000     0          
H138     H      0.654100000000     0.475800000000     0.324400000000     0          
C139     C      0.653600000000     0.442000000000     0.400400000000     0          
C140     C      0.742800000000     0.451100000000     0.296600000000     0          
H141     H      0.731300000000     0.462300000000     0.270000000000     0          
C142     C      0.865500000000     0.422500000000     0.277600000000     0          
C143     C      0.911100000000     0.535600000000     0.307700000000     0          
H144     H      0.927000000000     0.520000000000     0.333800000000     0          
H145     H      0.863600000000     0.550900000000     0.309800000000     0          
H146     H      0.939700000000     0.573500000000     0.298600000000     0          
C147     C      0.711100000000     0.436400000000     0.369500000000     0          
C148     C      0.808100000000     0.426000000000     0.309300000000     0          
C149     C      0.774900000000     0.410800000000     0.383100000000     0          
H150     H      0.786200000000     0.399400000000     0.409700000000     0          
C151     C      0.818700000000     0.405300000000     0.349600000000     0          
H152     H      0.861600000000     0.384700000000     0.354800000000     0          
O153     O      0.407800000000     0.529200000000     0.390000000000     0          
O154     O      0.326700000000     0.559800000000     0.438600000000     0          
O155     O      0.415700000000     0.463200000000     0.463600000000     0          
C156     C      0.084400000000     0.524400000000     0.277400000000     0          
C157     C      0.302300000000     0.543400000000     0.329600000000     0          
H158     H      0.345900000000     0.524200000000     0.324400000000     0          
C159     C      0.346400000000     0.558000000000     0.400400000000     0          
C160     C      0.257200000000     0.548900000000     0.296600000000     0          
H161     H      0.268700000000     0.537700000000     0.270000000000     0          
C162     C      0.134500000000     0.577500000000     0.277600000000     0          
C163     C      0.088900000000     0.464400000000     0.307700000000     0          
H164     H      0.073000000000     0.480000000000     0.333800000000     0          
H165     H      0.136400000000     0.449100000000     0.309800000000     0          
H166     H      0.060300000000     0.426500000000     0.298600000000     0          
C167     C      0.288900000000     0.563600000000     0.369500000000     0          
C168     C      0.191900000000     0.574000000000     0.309300000000     0          
C169     C      0.225100000000     0.589200000000     0.383100000000     0          
H170     H      0.213800000000     0.600600000000     0.409700000000     0          
C171     C      0.181300000000     0.594700000000     0.349600000000     0          
H172     H      0.138400000000     0.615300000000     0.354800000000     0          
O173     O      0.029200000000     0.907800000000     0.890000000000     0          
O174     O      0.059800000000     0.826700000000     0.938600000000     0          
O175     O      0.963200000000     0.915700000000     0.963600000000     0          
C176     C      0.024400000000     0.584400000000     0.777400000000     0          
C177     C      0.043400000000     0.802300000000     0.829600000000     0          
H178     H      0.024200000000     0.845900000000     0.824400000000     0          
C179     C      0.058000000000     0.846400000000     0.900400000000     0          
C180     C      0.048900000000     0.757200000000     0.796600000000     0          
H181     H      0.037700000000     0.768700000000     0.770000000000     0          
C182     C      0.077500000000     0.634500000000     0.777600000000     0          
C183     C      0.964400000000     0.588900000000     0.807700000000     0          
H184     H      0.980000000000     0.573000000000     0.833800000000     0          
H185     H      0.949100000000     0.636400000000     0.809800000000     0          
H186     H      0.926500000000     0.560300000000     0.798600000000     0          
C187     C      0.063600000000     0.788900000000     0.869500000000     0          
C188     C      0.074000000000     0.691900000000     0.809300000000     0          
C189     C      0.089200000000     0.725100000000     0.883100000000     0          
H190     H      0.100600000000     0.713800000000     0.909700000000     0          
C191     C      0.094700000000     0.681300000000     0.849600000000     0          
H192     H      0.115300000000     0.638400000000     0.854800000000     0          
O193     O      0.970800000000     0.092200000000     0.890000000000     0          
O194     O      0.940200000000     0.173300000000     0.938600000000     0          
O195     O      0.036800000000     0.084300000000     0.963600000000     0          
C196     C      0.975600000000     0.415600000000     0.777400000000     0          
C197     C      0.956600000000     0.197700000000     0.829600000000     0          
H198     H      0.975800000000     0.154100000000     0.824400000000     0          
C199     C      0.942000000000     0.153600000000     0.900400000000     0          
C200     C      0.951100000000     0.242800000000     0.796600000000     0          
H201     H      0.962300000000     0.231300000000     0.770000000000     0          
C202     C      0.922500000000     0.365500000000     0.777600000000     0          
C203     C      0.035600000000     0.411100000000     0.807700000000     0          
H204     H      0.020000000000     0.427000000000     0.833800000000     0          
H205     H      0.050900000000     0.363600000000     0.809800000000     0          
H206     H      0.073500000000     0.439700000000     0.798600000000     0          
C207     C      0.936400000000     0.211100000000     0.869500000000     0          
C208     C      0.926000000000     0.308100000000     0.809300000000     0          
C209     C      0.910800000000     0.274900000000     0.883100000000     0          
H210     H      0.899400000000     0.286200000000     0.909700000000     0          
C211     C      0.905300000000     0.318700000000     0.849600000000     0          
H212     H      0.884700000000     0.361600000000     0.854800000000     0          
O213     O      0.092200000000     0.029200000000     0.890000000000     0          
O214     O      0.173300000000     0.059800000000     0.938600000000     0          
O215     O      0.084300000000     0.963200000000     0.963600000000     0          
C216     C      0.415600000000     0.024400000000     0.777400000000     0          
C217     C      0.197700000000     0.043400000000     0.829600000000     0          
H218     H      0.154100000000     0.024200000000     0.824400000000     0          
C219     C      0.153600000000     0.058000000000     0.900400000000     0          
C220     C      0.242800000000     0.048900000000     0.796600000000     0          
H221     H      0.231300000000     0.037700000000     0.770000000000     0          
C222     C      0.365500000000     0.077500000000     0.777600000000     0          
C223     C      0.411100000000     0.964400000000     0.807700000000     0          
H224     H      0.427000000000     0.980000000000     0.833800000000     0          
H225     H      0.363600000000     0.949100000000     0.809800000000     0          
H226     H      0.439700000000     0.926500000000     0.798600000000     0          
C227     C      0.211100000000     0.063600000000     0.869500000000     0          
C228     C      0.308100000000     0.074000000000     0.809300000000     0          
C229     C      0.274900000000     0.089200000000     0.883100000000     0          
H230     H      0.286200000000     0.100600000000     0.909700000000     0          
C231     C      0.318700000000     0.094700000000     0.849600000000     0          
H232     H      0.361600000000     0.115300000000     0.854800000000     0          
H233     H      0.278100000000     0.178800000000     0.770900000000     0          
H234     H      0.288400000000     0.189100000000     0.724100000000     0          
H235     H      0.332500000000     0.233200000000     0.754900000000     0          
O236     O      0.907800000000     0.970800000000     0.890000000000     0          
O237     O      0.826700000000     0.940200000000     0.938600000000     0          
O238     O      0.915700000000     0.036800000000     0.963600000000     0          
C239     C      0.584400000000     0.975600000000     0.777400000000     0          
C240     C      0.802300000000     0.956600000000     0.829600000000     0          
H241     H      0.845900000000     0.975800000000     0.824400000000     0          
C242     C      0.846400000000     0.942000000000     0.900400000000     0          
C243     C      0.757200000000     0.951100000000     0.796600000000     0          
H244     H      0.768700000000     0.962300000000     0.770000000000     0          
C245     C      0.634500000000     0.922500000000     0.777600000000     0          
C246     C      0.588900000000     0.035600000000     0.807700000000     0          
H247     H      0.573000000000     0.020000000000     0.833800000000     0          
H248     H      0.636400000000     0.050900000000     0.809800000000     0          
H249     H      0.560300000000     0.073500000000     0.798600000000     0          
C250     C      0.788900000000     0.936400000000     0.869500000000     0          
C251     C      0.691900000000     0.926000000000     0.809300000000     0          
C252     C      0.725100000000     0.910800000000     0.883100000000     0          
H253     H      0.713800000000     0.899400000000     0.909700000000     0          
C254     C      0.681300000000     0.905300000000     0.849600000000     0          
H255     H      0.638400000000     0.884700000000     0.854800000000     0          
O256     O      0.470800000000     0.407800000000     0.610000000000     0          
O257     O      0.440200000000     0.326700000000     0.561400000000     0          
O258     O      0.536800000000     0.415700000000     0.536400000000     0          
C259     C      0.475600000000     0.084400000000     0.722600000000     0          
C260     C      0.456600000000     0.302300000000     0.670400000000     0          
H261     H      0.475800000000     0.345900000000     0.675600000000     0          
C262     C      0.442000000000     0.346400000000     0.599600000000     0          
C263     C      0.451100000000     0.257200000000     0.703400000000     0          
H264     H      0.462300000000     0.268700000000     0.730000000000     0          
C265     C      0.422500000000     0.134500000000     0.722400000000     0          
C266     C      0.535600000000     0.088900000000     0.692300000000     0          
H267     H      0.520000000000     0.073000000000     0.666200000000     0          
H268     H      0.550900000000     0.136400000000     0.690200000000     0          
H269     H      0.573500000000     0.060300000000     0.701400000000     0          
C270     C      0.436400000000     0.288900000000     0.630500000000     0          
C271     C      0.426000000000     0.191900000000     0.690700000000     0          
C272     C      0.410800000000     0.225100000000     0.616900000000     0          
H273     H      0.399400000000     0.213800000000     0.590300000000     0          
C274     C      0.405300000000     0.181300000000     0.650400000000     0          
H275     H      0.384700000000     0.138400000000     0.645200000000     0          
O276     O      0.529200000000     0.592200000000     0.610000000000     0          
O277     O      0.559800000000     0.673300000000     0.561400000000     0          
O278     O      0.463200000000     0.584300000000     0.536400000000     0          
C279     C      0.524400000000     0.915600000000     0.722600000000     0          
C280     C      0.543400000000     0.697700000000     0.670400000000     0          
H281     H      0.524200000000     0.654100000000     0.675600000000     0          
C282     C      0.558000000000     0.653600000000     0.599600000000     0          
C283     C      0.548900000000     0.742800000000     0.703400000000     0          
H284     H      0.537700000000     0.731300000000     0.730000000000     0          
C285     C      0.577500000000     0.865500000000     0.722400000000     0          
C286     C      0.464400000000     0.911100000000     0.692300000000     0          
H287     H      0.480000000000     0.927000000000     0.666200000000     0          
H288     H      0.449100000000     0.863600000000     0.690200000000     0          
H289     H      0.426500000000     0.939700000000     0.701400000000     0          
C290     C      0.563600000000     0.711100000000     0.630500000000     0          
C291     C      0.574000000000     0.808100000000     0.690700000000     0          
C292     C      0.589200000000     0.774900000000     0.616900000000     0          
H293     H      0.600600000000     0.786200000000     0.590300000000     0          
C294     C      0.594700000000     0.818700000000     0.650400000000     0          
H295     H      0.615300000000     0.861600000000     0.645200000000     0          
H296     H      0.678800000000     0.778100000000     0.729100000000     0          
H297     H      0.689100000000     0.788400000000     0.775900000000     0          
H298     H      0.733200000000     0.832500000000     0.745100000000     0          
O299     O      0.407800000000     0.529200000000     0.610000000000     0          
O300     O      0.326700000000     0.559800000000     0.561400000000     0          
O301     O      0.415700000000     0.463200000000     0.536400000000     0          
C302     C      0.084400000000     0.524400000000     0.722600000000     0          
C303     C      0.302300000000     0.543400000000     0.670400000000     0          
H304     H      0.345900000000     0.524200000000     0.675600000000     0          
C305     C      0.346400000000     0.558000000000     0.599600000000     0          
C306     C      0.257200000000     0.548900000000     0.703400000000     0          
H307     H      0.268700000000     0.537700000000     0.730000000000     0          
C308     C      0.134500000000     0.577500000000     0.722400000000     0          
C309     C      0.088900000000     0.464400000000     0.692300000000     0          
H310     H      0.073000000000     0.480000000000     0.666200000000     0          
H311     H      0.136400000000     0.449100000000     0.690200000000     0          
H312     H      0.060300000000     0.426500000000     0.701400000000     0          
C313     C      0.288900000000     0.563600000000     0.630500000000     0          
C314     C      0.191900000000     0.574000000000     0.690700000000     0          
C315     C      0.225100000000     0.589200000000     0.616900000000     0          
H316     H      0.213800000000     0.600600000000     0.590300000000     0          
C317     C      0.181300000000     0.594700000000     0.650400000000     0          
H318     H      0.138400000000     0.615300000000     0.645200000000     0          
H319     H      0.221900000000     0.678800000000     0.729100000000     0          
H320     H      0.211600000000     0.689100000000     0.775900000000     0          
H321     H      0.167500000000     0.733200000000     0.745100000000     0          
O322     O      0.592200000000     0.470800000000     0.610000000000     0          
O323     O      0.673300000000     0.440200000000     0.561400000000     0          
O324     O      0.584300000000     0.536800000000     0.536400000000     0          
C325     C      0.915600000000     0.475600000000     0.722600000000     0          
C326     C      0.697700000000     0.456600000000     0.670400000000     0          
H327     H      0.654100000000     0.475800000000     0.675600000000     0          
C328     C      0.653600000000     0.442000000000     0.599600000000     0          
C329     C      0.742800000000     0.451100000000     0.703400000000     0          
H330     H      0.731300000000     0.462300000000     0.730000000000     0          
C331     C      0.865500000000     0.422500000000     0.722400000000     0          
C332     C      0.911100000000     0.535600000000     0.692300000000     0          
H333     H      0.927000000000     0.520000000000     0.666200000000     0          
H334     H      0.863600000000     0.550900000000     0.690200000000     0          
H335     H      0.939700000000     0.573500000000     0.701400000000     0          
C336     C      0.711100000000     0.436400000000     0.630500000000     0          
C337     C      0.808100000000     0.426000000000     0.690700000000     0          
C338     C      0.774900000000     0.410800000000     0.616900000000     0          
H339     H      0.786200000000     0.399400000000     0.590300000000     0          
C340     C      0.818700000000     0.405300000000     0.650400000000     0          
H341     H      0.861600000000     0.384700000000     0.645200000000     0          
H342     H      0.778100000000     0.321200000000     0.729100000000     0          
H343     H      0.788400000000     0.310900000000     0.775900000000     0          
H344     H      0.832500000000     0.266800000000     0.745100000000     0          
Zr345    Zr     0.122600000000     0.045980000000     0.000000000000     0          
Zr346    Zr     0.877400000000     0.954020000000     0.000000000000     0          
Zr347    Zr     0.954020000000     0.122600000000     0.000000000000     0          
Zr348    Zr     0.045980000000     0.877400000000     0.000000000000     0          
Zr349    Zr     0.377400000000     0.545980000000     0.500000000000     0          
Zr350    Zr     0.622600000000     0.454020000000     0.500000000000     0          
Zr351    Zr     0.545980000000     0.622600000000     0.500000000000     0          
Zr352    Zr     0.454020000000     0.377400000000     0.500000000000     0          
Zr353    Zr     0.000000000000     0.000000000000     0.074260000000     0          
Zr354    Zr     0.500000000000     0.500000000000     0.425740000000     0          
Zr355    Zr     0.000000000000     0.000000000000     0.925740000000     0          
Zr356    Zr     0.500000000000     0.500000000000     0.574260000000     0          
C357     C      0.972200000000     0.472200000000     0.250000000000     0          
C358     C      0.866900000000     0.366900000000     0.250000000000     0          
C359     C      0.811500000000     0.311500000000     0.250000000000     0          
C360     C      0.027800000000     0.527800000000     0.250000000000     0          
C361     C      0.133100000000     0.633100000000     0.250000000000     0          
C362     C      0.188500000000     0.688500000000     0.250000000000     0          
C363     C      0.527800000000     0.972200000000     0.250000000000     0          
C364     C      0.633100000000     0.866900000000     0.250000000000     0          
C365     C      0.688500000000     0.811500000000     0.250000000000     0          
C366     C      0.472200000000     0.027800000000     0.250000000000     0          
C367     C      0.366900000000     0.133100000000     0.250000000000     0          
C368     C      0.311500000000     0.188500000000     0.250000000000     0          
C369     C      0.027800000000     0.527800000000     0.750000000000     0          
C370     C      0.133100000000     0.633100000000     0.750000000000     0          
C371     C      0.188500000000     0.688500000000     0.750000000000     0          
C372     C      0.972200000000     0.472200000000     0.750000000000     0          
C373     C      0.866900000000     0.366900000000     0.750000000000     0          
C374     C      0.811500000000     0.311500000000     0.750000000000     0          
C375     C      0.472200000000     0.027800000000     0.750000000000     0          
C376     C      0.366900000000     0.133100000000     0.750000000000     0          
C377     C      0.311500000000     0.188500000000     0.750000000000     0          
C378     C      0.527800000000     0.972200000000     0.750000000000     0          
C379     C      0.633100000000     0.866900000000     0.750000000000     0          
C380     C      0.688500000000     0.811500000000     0.750000000000     0          


