data_NEVSUF07

_audit_creation_method RASPA-1.0
_audit_creation_date 2020-11-2
_audit_author_name 'Rocio Bueno-Perez'

_cell_length_a    18.9366
_cell_length_b    18.9366
_cell_length_c    32.864
_cell_angle_alpha 90
_cell_angle_beta  90
_cell_angle_gamma 90
_cell_volume      11784.9

_symmetry_cell_setting          triclinic
_symmetry_space_group_name_Hall 'P 1'
_symmetry_space_group_name_H-M  'P 1'
_symmetry_Int_Tables_number     1

_symmetry_equiv_pos_as_xyz 'x,y,z'

loop_
_atom_site_label
_atom_site_type_symbol
_atom_site_fract_x
_atom_site_fract_y
_atom_site_fract_z
_atom_site_charge
O1       O      0.970700000000     0.093600000000     0.107800000000     0          
O2       O      0.937200000000     0.172400000000     0.060900000000     0          
O3       O      0.039600000000     0.084000000000     0.034800000000     0          
C4       C      0.976900000000     0.414400000000     0.222400000000     0          
C5       C      0.943800000000     0.149000000000     0.098100000000     0          
C6       C      0.924700000000     0.366900000000     0.220800000000     0          
C7       C      0.036200000000     0.408000000000     0.192300000000     0          
H8       H      0.069800000000     0.445100000000     0.196800000000     0          
H9       H      0.059000000000     0.363100000000     0.195500000000     0          
H10      H      0.017700000000     0.411800000000     0.165200000000     0          
C11      C      0.917600000000     0.274500000000     0.119200000000     0          
H12      H      0.906600000000     0.285100000000     0.092400000000     0          
C13      C      0.913200000000     0.326600000000     0.148900000000     0          
H14      H      0.899200000000     0.372000000000     0.141900000000     0          
C15      C      0.929800000000     0.310700000000     0.189100000000     0          
C16      C      0.950800000000     0.242700000000     0.199600000000     0          
H17      H      0.961800000000     0.232100000000     0.226500000000     0          
C18      C      0.955200000000     0.190600000000     0.169900000000     0          
H19      H      0.969200000000     0.145200000000     0.176900000000     0          
C20      C      0.938600000000     0.206500000000     0.129700000000     0          
H21      H      0.824600000000     0.282200000000     0.228500000000     0          
H22      H      0.815600000000     0.291200000000     0.275700000000     0          
H23      H      0.770000000000     0.336800000000     0.245800000000     0          
O24      O      0.029300000000     0.906400000000     0.107800000000     0          
O25      O      0.062800000000     0.827600000000     0.060900000000     0          
O26      O      0.960400000000     0.916000000000     0.034800000000     0          
C27      C      0.023100000000     0.585600000000     0.222400000000     0          
C28      C      0.056200000000     0.851000000000     0.098100000000     0          
C29      C      0.075300000000     0.633100000000     0.220800000000     0          
C30      C      0.963800000000     0.592000000000     0.192300000000     0          
H31      H      0.930200000000     0.554900000000     0.196800000000     0          
H32      H      0.941000000000     0.636900000000     0.195500000000     0          
H33      H      0.982300000000     0.588200000000     0.165200000000     0          
C34      C      0.082400000000     0.725500000000     0.119200000000     0          
H35      H      0.093400000000     0.714900000000     0.092400000000     0          
C36      C      0.086800000000     0.673400000000     0.148900000000     0          
H37      H      0.100800000000     0.628000000000     0.141900000000     0          
C38      C      0.070200000000     0.689300000000     0.189100000000     0          
C39      C      0.049200000000     0.757300000000     0.199600000000     0          
H40      H      0.038200000000     0.767900000000     0.226500000000     0          
C41      C      0.044800000000     0.809400000000     0.169900000000     0          
H42      H      0.030800000000     0.854800000000     0.176900000000     0          
C43      C      0.061400000000     0.793500000000     0.129700000000     0          
O44      O      0.906400000000     0.970700000000     0.107800000000     0          
O45      O      0.827600000000     0.937200000000     0.060900000000     0          
O46      O      0.916000000000     0.039600000000     0.034800000000     0          
C47      C      0.585600000000     0.976900000000     0.222400000000     0          
C48      C      0.851000000000     0.943800000000     0.098100000000     0          
C49      C      0.633100000000     0.924700000000     0.220800000000     0          
C50      C      0.592000000000     0.036200000000     0.192300000000     0          
H51      H      0.554900000000     0.069800000000     0.196800000000     0          
H52      H      0.636900000000     0.059000000000     0.195500000000     0          
H53      H      0.588200000000     0.017700000000     0.165200000000     0          
C54      C      0.725500000000     0.917600000000     0.119200000000     0          
H55      H      0.714900000000     0.906600000000     0.092400000000     0          
C56      C      0.673400000000     0.913200000000     0.148900000000     0          
H57      H      0.628000000000     0.899200000000     0.141900000000     0          
C58      C      0.689300000000     0.929800000000     0.189100000000     0          
C59      C      0.757300000000     0.950800000000     0.199600000000     0          
H60      H      0.767900000000     0.961800000000     0.226500000000     0          
C61      C      0.809400000000     0.955200000000     0.169900000000     0          
H62      H      0.854800000000     0.969200000000     0.176900000000     0          
C63      C      0.793500000000     0.938600000000     0.129700000000     0          
O64      O      0.093600000000     0.029300000000     0.107800000000     0          
O65      O      0.172400000000     0.062800000000     0.060900000000     0          
O66      O      0.084000000000     0.960400000000     0.034800000000     0          
C67      C      0.414400000000     0.023100000000     0.222400000000     0          
C68      C      0.149000000000     0.056200000000     0.098100000000     0          
C69      C      0.366900000000     0.075300000000     0.220800000000     0          
C70      C      0.408000000000     0.963800000000     0.192300000000     0          
H71      H      0.445100000000     0.930200000000     0.196800000000     0          
H72      H      0.363100000000     0.941000000000     0.195500000000     0          
H73      H      0.411800000000     0.982300000000     0.165200000000     0          
C74      C      0.274500000000     0.082400000000     0.119200000000     0          
H75      H      0.285100000000     0.093400000000     0.092400000000     0          
C76      C      0.326600000000     0.086800000000     0.148900000000     0          
H77      H      0.372000000000     0.100800000000     0.141900000000     0          
C78      C      0.310700000000     0.070200000000     0.189100000000     0          
C79      C      0.242700000000     0.049200000000     0.199600000000     0          
H80      H      0.232100000000     0.038200000000     0.226500000000     0          
C81      C      0.190600000000     0.044800000000     0.169900000000     0          
H82      H      0.145200000000     0.030800000000     0.176900000000     0          
C83      C      0.206500000000     0.061400000000     0.129700000000     0          
H84      H      0.282200000000     0.175400000000     0.228500000000     0          
H85      H      0.291200000000     0.184400000000     0.275700000000     0          
H86      H      0.336800000000     0.230000000000     0.245800000000     0          
O87      O      0.529300000000     0.593600000000     0.392200000000     0          
O88      O      0.562800000000     0.672400000000     0.439100000000     0          
O89      O      0.460400000000     0.584000000000     0.465200000000     0          
C90      C      0.523100000000     0.914400000000     0.277600000000     0          
C91      C      0.556200000000     0.649000000000     0.401900000000     0          
C92      C      0.575300000000     0.866900000000     0.279200000000     0          
C93      C      0.463800000000     0.908000000000     0.307700000000     0          
H94      H      0.430200000000     0.945100000000     0.303200000000     0          
H95      H      0.441000000000     0.863100000000     0.304500000000     0          
H96      H      0.482300000000     0.911800000000     0.334800000000     0          
C97      C      0.582400000000     0.774500000000     0.380800000000     0          
H98      H      0.593400000000     0.785100000000     0.407600000000     0          
C99      C      0.586800000000     0.826600000000     0.351100000000     0          
H100     H      0.600800000000     0.872000000000     0.358100000000     0          
C101     C      0.570200000000     0.810700000000     0.310900000000     0          
C102     C      0.549200000000     0.742700000000     0.300400000000     0          
H103     H      0.538200000000     0.732100000000     0.273500000000     0          
C104     C      0.544800000000     0.690600000000     0.330100000000     0          
H105     H      0.530800000000     0.645200000000     0.323100000000     0          
C106     C      0.561400000000     0.706500000000     0.370300000000     0          
H107     H      0.675400000000     0.782200000000     0.271500000000     0          
H108     H      0.684400000000     0.791200000000     0.224300000000     0          
H109     H      0.730000000000     0.836800000000     0.254200000000     0          
O110     O      0.470700000000     0.406400000000     0.392200000000     0          
O111     O      0.437200000000     0.327600000000     0.439100000000     0          
O112     O      0.539600000000     0.416000000000     0.465200000000     0          
C113     C      0.476900000000     0.085600000000     0.277600000000     0          
C114     C      0.443800000000     0.351000000000     0.401900000000     0          
C115     C      0.424700000000     0.133100000000     0.279200000000     0          
C116     C      0.536200000000     0.092000000000     0.307700000000     0          
H117     H      0.569800000000     0.054900000000     0.303200000000     0          
H118     H      0.559000000000     0.136900000000     0.304500000000     0          
H119     H      0.517700000000     0.088200000000     0.334800000000     0          
C120     C      0.417600000000     0.225500000000     0.380800000000     0          
H121     H      0.406600000000     0.214900000000     0.407600000000     0          
C122     C      0.413200000000     0.173400000000     0.351100000000     0          
H123     H      0.399200000000     0.128000000000     0.358100000000     0          
C124     C      0.429800000000     0.189300000000     0.310900000000     0          
C125     C      0.450800000000     0.257300000000     0.300400000000     0          
H126     H      0.461800000000     0.267900000000     0.273500000000     0          
C127     C      0.455200000000     0.309400000000     0.330100000000     0          
H128     H      0.469200000000     0.354800000000     0.323100000000     0          
C129     C      0.438600000000     0.293500000000     0.370300000000     0          
O130     O      0.593600000000     0.470700000000     0.392200000000     0          
O131     O      0.672400000000     0.437200000000     0.439100000000     0          
O132     O      0.584000000000     0.539600000000     0.465200000000     0          
C133     C      0.914400000000     0.476900000000     0.277600000000     0          
C134     C      0.649000000000     0.443800000000     0.401900000000     0          
C135     C      0.866900000000     0.424700000000     0.279200000000     0          
C136     C      0.908000000000     0.536200000000     0.307700000000     0          
H137     H      0.945100000000     0.569800000000     0.303200000000     0          
H138     H      0.863100000000     0.559000000000     0.304500000000     0          
H139     H      0.911800000000     0.517700000000     0.334800000000     0          
C140     C      0.774500000000     0.417600000000     0.380800000000     0          
H141     H      0.785100000000     0.406600000000     0.407600000000     0          
C142     C      0.826600000000     0.413200000000     0.351100000000     0          
H143     H      0.872000000000     0.399200000000     0.358100000000     0          
C144     C      0.810700000000     0.429800000000     0.310900000000     0          
C145     C      0.742700000000     0.450800000000     0.300400000000     0          
H146     H      0.732100000000     0.461800000000     0.273500000000     0          
C147     C      0.690600000000     0.455200000000     0.330100000000     0          
H148     H      0.645200000000     0.469200000000     0.323100000000     0          
C149     C      0.706500000000     0.438600000000     0.370300000000     0          
O150     O      0.406400000000     0.529300000000     0.392200000000     0          
O151     O      0.327600000000     0.562800000000     0.439100000000     0          
O152     O      0.416000000000     0.460400000000     0.465200000000     0          
C153     C      0.085600000000     0.523100000000     0.277600000000     0          
C154     C      0.351000000000     0.556200000000     0.401900000000     0          
C155     C      0.133100000000     0.575300000000     0.279200000000     0          
C156     C      0.092000000000     0.463800000000     0.307700000000     0          
H157     H      0.054900000000     0.430200000000     0.303200000000     0          
H158     H      0.136900000000     0.441000000000     0.304500000000     0          
H159     H      0.088200000000     0.482300000000     0.334800000000     0          
C160     C      0.225500000000     0.582400000000     0.380800000000     0          
H161     H      0.214900000000     0.593400000000     0.407600000000     0          
C162     C      0.173400000000     0.586800000000     0.351100000000     0          
H163     H      0.128000000000     0.600800000000     0.358100000000     0          
C164     C      0.189300000000     0.570200000000     0.310900000000     0          
C165     C      0.257300000000     0.549200000000     0.300400000000     0          
H166     H      0.267900000000     0.538200000000     0.273500000000     0          
C167     C      0.309400000000     0.544800000000     0.330100000000     0          
H168     H      0.354800000000     0.530800000000     0.323100000000     0          
C169     C      0.293500000000     0.561400000000     0.370300000000     0          
H170     H      0.217800000000     0.675400000000     0.271500000000     0          
H171     H      0.208800000000     0.684400000000     0.224300000000     0          
H172     H      0.163200000000     0.730000000000     0.254200000000     0          
O173     O      0.029300000000     0.906400000000     0.892200000000     0          
O174     O      0.062800000000     0.827600000000     0.939100000000     0          
O175     O      0.960400000000     0.916000000000     0.965200000000     0          
C176     C      0.023100000000     0.585600000000     0.777600000000     0          
C177     C      0.056200000000     0.851000000000     0.901900000000     0          
C178     C      0.075300000000     0.633100000000     0.779200000000     0          
C179     C      0.963800000000     0.592000000000     0.807700000000     0          
H180     H      0.930200000000     0.554900000000     0.803200000000     0          
H181     H      0.941000000000     0.636900000000     0.804500000000     0          
H182     H      0.982300000000     0.588200000000     0.834800000000     0          
C183     C      0.082400000000     0.725500000000     0.880800000000     0          
H184     H      0.093400000000     0.714900000000     0.907600000000     0          
C185     C      0.086800000000     0.673400000000     0.851100000000     0          
H186     H      0.100800000000     0.628000000000     0.858100000000     0          
C187     C      0.070200000000     0.689300000000     0.810900000000     0          
C188     C      0.049200000000     0.757300000000     0.800400000000     0          
H189     H      0.038200000000     0.767900000000     0.773500000000     0          
C190     C      0.044800000000     0.809400000000     0.830100000000     0          
H191     H      0.030800000000     0.854800000000     0.823100000000     0          
C192     C      0.061400000000     0.793500000000     0.870300000000     0          
O193     O      0.970700000000     0.093600000000     0.892200000000     0          
O194     O      0.937200000000     0.172400000000     0.939100000000     0          
O195     O      0.039600000000     0.084000000000     0.965200000000     0          
C196     C      0.976900000000     0.414400000000     0.777600000000     0          
C197     C      0.943800000000     0.149000000000     0.901900000000     0          
C198     C      0.924700000000     0.366900000000     0.779200000000     0          
C199     C      0.036200000000     0.408000000000     0.807700000000     0          
H200     H      0.069800000000     0.445100000000     0.803200000000     0          
H201     H      0.059000000000     0.363100000000     0.804500000000     0          
H202     H      0.017700000000     0.411800000000     0.834800000000     0          
C203     C      0.917600000000     0.274500000000     0.880800000000     0          
H204     H      0.906600000000     0.285100000000     0.907600000000     0          
C205     C      0.913200000000     0.326600000000     0.851100000000     0          
H206     H      0.899200000000     0.372000000000     0.858100000000     0          
C207     C      0.929800000000     0.310700000000     0.810900000000     0          
C208     C      0.950800000000     0.242700000000     0.800400000000     0          
H209     H      0.961800000000     0.232100000000     0.773500000000     0          
C210     C      0.955200000000     0.190600000000     0.830100000000     0          
H211     H      0.969200000000     0.145200000000     0.823100000000     0          
C212     C      0.938600000000     0.206500000000     0.870300000000     0          
H213     H      0.824600000000     0.282200000000     0.771500000000     0          
H214     H      0.815600000000     0.291200000000     0.724300000000     0          
H215     H      0.770000000000     0.336800000000     0.754200000000     0          
O216     O      0.093600000000     0.029300000000     0.892200000000     0          
O217     O      0.172400000000     0.062800000000     0.939100000000     0          
O218     O      0.084000000000     0.960400000000     0.965200000000     0          
C219     C      0.414400000000     0.023100000000     0.777600000000     0          
C220     C      0.149000000000     0.056200000000     0.901900000000     0          
C221     C      0.366900000000     0.075300000000     0.779200000000     0          
C222     C      0.408000000000     0.963800000000     0.807700000000     0          
H223     H      0.445100000000     0.930200000000     0.803200000000     0          
H224     H      0.363100000000     0.941000000000     0.804500000000     0          
H225     H      0.411800000000     0.982300000000     0.834800000000     0          
C226     C      0.274500000000     0.082400000000     0.880800000000     0          
H227     H      0.285100000000     0.093400000000     0.907600000000     0          
C228     C      0.326600000000     0.086800000000     0.851100000000     0          
H229     H      0.372000000000     0.100800000000     0.858100000000     0          
C230     C      0.310700000000     0.070200000000     0.810900000000     0          
C231     C      0.242700000000     0.049200000000     0.800400000000     0          
H232     H      0.232100000000     0.038200000000     0.773500000000     0          
C233     C      0.190600000000     0.044800000000     0.830100000000     0          
H234     H      0.145200000000     0.030800000000     0.823100000000     0          
C235     C      0.206500000000     0.061400000000     0.870300000000     0          
O236     O      0.906400000000     0.970700000000     0.892200000000     0          
O237     O      0.827600000000     0.937200000000     0.939100000000     0          
O238     O      0.916000000000     0.039600000000     0.965200000000     0          
C239     C      0.585600000000     0.976900000000     0.777600000000     0          
C240     C      0.851000000000     0.943800000000     0.901900000000     0          
C241     C      0.633100000000     0.924700000000     0.779200000000     0          
C242     C      0.592000000000     0.036200000000     0.807700000000     0          
H243     H      0.554900000000     0.069800000000     0.803200000000     0          
H244     H      0.636900000000     0.059000000000     0.804500000000     0          
H245     H      0.588200000000     0.017700000000     0.834800000000     0          
C246     C      0.725500000000     0.917600000000     0.880800000000     0          
H247     H      0.714900000000     0.906600000000     0.907600000000     0          
C248     C      0.673400000000     0.913200000000     0.851100000000     0          
H249     H      0.628000000000     0.899200000000     0.858100000000     0          
C250     C      0.689300000000     0.929800000000     0.810900000000     0          
C251     C      0.757300000000     0.950800000000     0.800400000000     0          
H252     H      0.767900000000     0.961800000000     0.773500000000     0          
C253     C      0.809400000000     0.955200000000     0.830100000000     0          
H254     H      0.854800000000     0.969200000000     0.823100000000     0          
C255     C      0.793500000000     0.938600000000     0.870300000000     0          
O256     O      0.470700000000     0.406400000000     0.607800000000     0          
O257     O      0.437200000000     0.327600000000     0.560900000000     0          
O258     O      0.539600000000     0.416000000000     0.534800000000     0          
C259     C      0.476900000000     0.085600000000     0.722400000000     0          
C260     C      0.443800000000     0.351000000000     0.598100000000     0          
C261     C      0.424700000000     0.133100000000     0.720800000000     0          
C262     C      0.536200000000     0.092000000000     0.692300000000     0          
H263     H      0.569800000000     0.054900000000     0.696800000000     0          
H264     H      0.559000000000     0.136900000000     0.695500000000     0          
H265     H      0.517700000000     0.088200000000     0.665200000000     0          
C266     C      0.417600000000     0.225500000000     0.619200000000     0          
H267     H      0.406600000000     0.214900000000     0.592400000000     0          
C268     C      0.413200000000     0.173400000000     0.648900000000     0          
H269     H      0.399200000000     0.128000000000     0.641900000000     0          
C270     C      0.429800000000     0.189300000000     0.689100000000     0          
C271     C      0.450800000000     0.257300000000     0.699600000000     0          
H272     H      0.461800000000     0.267900000000     0.726500000000     0          
C273     C      0.455200000000     0.309400000000     0.669900000000     0          
H274     H      0.469200000000     0.354800000000     0.676900000000     0          
C275     C      0.438600000000     0.293500000000     0.629700000000     0          
H276     H      0.324600000000     0.217800000000     0.728500000000     0          
H277     H      0.315600000000     0.208800000000     0.775700000000     0          
H278     H      0.270000000000     0.163200000000     0.745800000000     0          
O279     O      0.529300000000     0.593600000000     0.607800000000     0          
O280     O      0.562800000000     0.672400000000     0.560900000000     0          
O281     O      0.460400000000     0.584000000000     0.534800000000     0          
C282     C      0.523100000000     0.914400000000     0.722400000000     0          
C283     C      0.556200000000     0.649000000000     0.598100000000     0          
C284     C      0.575300000000     0.866900000000     0.720800000000     0          
C285     C      0.463800000000     0.908000000000     0.692300000000     0          
H286     H      0.430200000000     0.945100000000     0.696800000000     0          
H287     H      0.441000000000     0.863100000000     0.695500000000     0          
H288     H      0.482300000000     0.911800000000     0.665200000000     0          
C289     C      0.582400000000     0.774500000000     0.619200000000     0          
H290     H      0.593400000000     0.785100000000     0.592400000000     0          
C291     C      0.586800000000     0.826600000000     0.648900000000     0          
H292     H      0.600800000000     0.872000000000     0.641900000000     0          
C293     C      0.570200000000     0.810700000000     0.689100000000     0          
C294     C      0.549200000000     0.742700000000     0.699600000000     0          
H295     H      0.538200000000     0.732100000000     0.726500000000     0          
C296     C      0.544800000000     0.690600000000     0.669900000000     0          
H297     H      0.530800000000     0.645200000000     0.676900000000     0          
C298     C      0.561400000000     0.706500000000     0.629700000000     0          
H299     H      0.675400000000     0.782200000000     0.728500000000     0          
H300     H      0.684400000000     0.791200000000     0.775700000000     0          
H301     H      0.730000000000     0.836800000000     0.745800000000     0          
O302     O      0.406400000000     0.529300000000     0.607800000000     0          
O303     O      0.327600000000     0.562800000000     0.560900000000     0          
O304     O      0.416000000000     0.460400000000     0.534800000000     0          
C305     C      0.085600000000     0.523100000000     0.722400000000     0          
C306     C      0.351000000000     0.556200000000     0.598100000000     0          
C307     C      0.133100000000     0.575300000000     0.720800000000     0          
C308     C      0.092000000000     0.463800000000     0.692300000000     0          
H309     H      0.054900000000     0.430200000000     0.696800000000     0          
H310     H      0.136900000000     0.441000000000     0.695500000000     0          
H311     H      0.088200000000     0.482300000000     0.665200000000     0          
C312     C      0.225500000000     0.582400000000     0.619200000000     0          
H313     H      0.214900000000     0.593400000000     0.592400000000     0          
C314     C      0.173400000000     0.586800000000     0.648900000000     0          
H315     H      0.128000000000     0.600800000000     0.641900000000     0          
C316     C      0.189300000000     0.570200000000     0.689100000000     0          
C317     C      0.257300000000     0.549200000000     0.699600000000     0          
H318     H      0.267900000000     0.538200000000     0.726500000000     0          
C319     C      0.309400000000     0.544800000000     0.669900000000     0          
H320     H      0.354800000000     0.530800000000     0.676900000000     0          
C321     C      0.293500000000     0.561400000000     0.629700000000     0          
H322     H      0.217800000000     0.675400000000     0.728500000000     0          
H323     H      0.208800000000     0.684400000000     0.775700000000     0          
H324     H      0.163200000000     0.730000000000     0.745800000000     0          
O325     O      0.593600000000     0.470700000000     0.607800000000     0          
O326     O      0.672400000000     0.437200000000     0.560900000000     0          
O327     O      0.584000000000     0.539600000000     0.534800000000     0          
C328     C      0.914400000000     0.476900000000     0.722400000000     0          
C329     C      0.649000000000     0.443800000000     0.598100000000     0          
C330     C      0.866900000000     0.424700000000     0.720800000000     0          
C331     C      0.908000000000     0.536200000000     0.692300000000     0          
H332     H      0.945100000000     0.569800000000     0.696800000000     0          
H333     H      0.863100000000     0.559000000000     0.695500000000     0          
H334     H      0.911800000000     0.517700000000     0.665200000000     0          
C335     C      0.774500000000     0.417600000000     0.619200000000     0          
H336     H      0.785100000000     0.406600000000     0.592400000000     0          
C337     C      0.826600000000     0.413200000000     0.648900000000     0          
H338     H      0.872000000000     0.399200000000     0.641900000000     0          
C339     C      0.810700000000     0.429800000000     0.689100000000     0          
C340     C      0.742700000000     0.450800000000     0.699600000000     0          
H341     H      0.732100000000     0.461800000000     0.726500000000     0          
C342     C      0.690600000000     0.455200000000     0.669900000000     0          
H343     H      0.645200000000     0.469200000000     0.676900000000     0          
C344     C      0.706500000000     0.438600000000     0.629700000000     0          
Zr345    Zr     0.123070000000     0.045050000000     0.000000000000     0          
Zr346    Zr     0.876930000000     0.954950000000     0.000000000000     0          
Zr347    Zr     0.954950000000     0.123070000000     0.000000000000     0          
Zr348    Zr     0.045050000000     0.876930000000     0.000000000000     0          
Zr349    Zr     0.376930000000     0.545050000000     0.500000000000     0          
Zr350    Zr     0.623070000000     0.454950000000     0.500000000000     0          
Zr351    Zr     0.545050000000     0.623070000000     0.500000000000     0          
Zr352    Zr     0.454950000000     0.376930000000     0.500000000000     0          
Zr353    Zr     0.000000000000     0.000000000000     0.074000000000     0          
Zr354    Zr     0.500000000000     0.500000000000     0.426000000000     0          
Zr355    Zr     0.000000000000     0.000000000000     0.926000000000     0          
Zr356    Zr     0.500000000000     0.500000000000     0.574000000000     0          
C357     C      0.971800000000     0.471800000000     0.250000000000     0          
C358     C      0.871200000000     0.371200000000     0.250000000000     0          
C359     C      0.815300000000     0.315300000000     0.250000000000     0          
C360     C      0.028200000000     0.528200000000     0.250000000000     0          
C361     C      0.128800000000     0.628800000000     0.250000000000     0          
C362     C      0.184700000000     0.684700000000     0.250000000000     0          
C363     C      0.528200000000     0.971800000000     0.250000000000     0          
C364     C      0.628800000000     0.871200000000     0.250000000000     0          
C365     C      0.684700000000     0.815300000000     0.250000000000     0          
C366     C      0.471800000000     0.028200000000     0.250000000000     0          
C367     C      0.371200000000     0.128800000000     0.250000000000     0          
C368     C      0.315300000000     0.184700000000     0.250000000000     0          
C369     C      0.028200000000     0.528200000000     0.750000000000     0          
C370     C      0.128800000000     0.628800000000     0.750000000000     0          
C371     C      0.184700000000     0.684700000000     0.750000000000     0          
C372     C      0.971800000000     0.471800000000     0.750000000000     0          
C373     C      0.871200000000     0.371200000000     0.750000000000     0          
C374     C      0.815300000000     0.315300000000     0.750000000000     0          
C375     C      0.471800000000     0.028200000000     0.750000000000     0          
C376     C      0.371200000000     0.128800000000     0.750000000000     0          
C377     C      0.315300000000     0.184700000000     0.750000000000     0          
C378     C      0.528200000000     0.971800000000     0.750000000000     0          
C379     C      0.628800000000     0.871200000000     0.750000000000     0          
C380     C      0.684700000000     0.815300000000     0.750000000000     0          


