data_NEVSUF08

_audit_creation_method RASPA-1.0
_audit_creation_date 2020-11-2
_audit_author_name 'Rocio Bueno-Perez'

_cell_length_a    19.1146
_cell_length_b    19.1146
_cell_length_c    33.047
_cell_angle_alpha 90
_cell_angle_beta  90
_cell_angle_gamma 90
_cell_volume      12074.3

_symmetry_cell_setting          triclinic
_symmetry_space_group_name_Hall 'P 1'
_symmetry_space_group_name_H-M  'P 1'
_symmetry_Int_Tables_number     1

_symmetry_equiv_pos_as_xyz 'x,y,z'

loop_
_atom_site_label
_atom_site_type_symbol
_atom_site_fract_x
_atom_site_fract_y
_atom_site_fract_z
_atom_site_charge
O1       O      0.971100000000     0.092800000000     0.109800000000     0          
O2       O      0.937700000000     0.174600000000     0.060600000000     0          
O3       O      0.039000000000     0.085800000000     0.035900000000     0          
C4       C      0.975000000000     0.416200000000     0.222500000000     0          
C5       C      0.957300000000     0.195400000000     0.170000000000     0          
H6       H      0.974600000000     0.150800000000     0.174900000000     0          
C7       C      0.943500000000     0.153200000000     0.099700000000     0          
C8       C      0.953000000000     0.241300000000     0.202700000000     0          
H9       H      0.965300000000     0.229900000000     0.229100000000     0          
C10      C      0.922700000000     0.365500000000     0.221300000000     0          
C11      C      0.030600000000     0.412300000000     0.189700000000     0          
H12      H      0.063700000000     0.449500000000     0.193500000000     0          
H13      H      0.054200000000     0.368100000000     0.191300000000     0          
H14      H      0.008800000000     0.416900000000     0.163700000000     0          
C15      C      0.937400000000     0.211600000000     0.130300000000     0          
C16      C      0.927700000000     0.306900000000     0.190600000000     0          
C17      C      0.912100000000     0.276400000000     0.116800000000     0          
H18      H      0.899900000000     0.287800000000     0.090400000000     0          
C19      C      0.908400000000     0.320800000000     0.150500000000     0          
H20      H      0.890700000000     0.365300000000     0.145600000000     0          
O21      O      0.028900000000     0.907200000000     0.109800000000     0          
O22      O      0.062300000000     0.825400000000     0.060600000000     0          
O23      O      0.961000000000     0.914200000000     0.035900000000     0          
C24      C      0.025000000000     0.583800000000     0.222500000000     0          
C25      C      0.042700000000     0.804600000000     0.170000000000     0          
H26      H      0.025400000000     0.849200000000     0.174900000000     0          
C27      C      0.056500000000     0.846800000000     0.099700000000     0          
C28      C      0.047000000000     0.758700000000     0.202700000000     0          
H29      H      0.034700000000     0.770100000000     0.229100000000     0          
C30      C      0.077300000000     0.634500000000     0.221300000000     0          
C31      C      0.969400000000     0.587700000000     0.189700000000     0          
H32      H      0.936300000000     0.550500000000     0.193500000000     0          
H33      H      0.945800000000     0.631900000000     0.191300000000     0          
H34      H      0.991200000000     0.583100000000     0.163700000000     0          
C35      C      0.062600000000     0.788400000000     0.130300000000     0          
C36      C      0.072300000000     0.693100000000     0.190600000000     0          
C37      C      0.087900000000     0.723600000000     0.116800000000     0          
H38      H      0.100100000000     0.712200000000     0.090400000000     0          
C39      C      0.091600000000     0.679200000000     0.150500000000     0          
H40      H      0.109300000000     0.634700000000     0.145600000000     0          
H41      H      0.177500000000     0.719800000000     0.228800000000     0          
H42      H      0.186700000000     0.710500000000     0.275600000000     0          
H43      H      0.231700000000     0.665600000000     0.245600000000     0          
O44      O      0.907200000000     0.971100000000     0.109800000000     0          
O45      O      0.825400000000     0.937700000000     0.060600000000     0          
O46      O      0.914200000000     0.039000000000     0.035900000000     0          
C47      C      0.583800000000     0.975000000000     0.222500000000     0          
C48      C      0.804600000000     0.957300000000     0.170000000000     0          
H49      H      0.849200000000     0.974600000000     0.174900000000     0          
C50      C      0.846800000000     0.943500000000     0.099700000000     0          
C51      C      0.758700000000     0.953000000000     0.202700000000     0          
H52      H      0.770100000000     0.965300000000     0.229100000000     0          
C53      C      0.634500000000     0.922700000000     0.221300000000     0          
C54      C      0.587700000000     0.030600000000     0.189700000000     0          
H55      H      0.550500000000     0.063700000000     0.193500000000     0          
H56      H      0.631900000000     0.054200000000     0.191300000000     0          
H57      H      0.583100000000     0.008800000000     0.163700000000     0          
C58      C      0.788400000000     0.937400000000     0.130300000000     0          
C59      C      0.693100000000     0.927700000000     0.190600000000     0          
C60      C      0.723600000000     0.912100000000     0.116800000000     0          
H61      H      0.712200000000     0.899900000000     0.090400000000     0          
C62      C      0.679200000000     0.908400000000     0.150500000000     0          
H63      H      0.634700000000     0.890700000000     0.145600000000     0          
H64      H      0.719800000000     0.822500000000     0.228800000000     0          
H65      H      0.710500000000     0.813300000000     0.275600000000     0          
H66      H      0.665600000000     0.768300000000     0.245600000000     0          
O67      O      0.092800000000     0.028900000000     0.109800000000     0          
O68      O      0.174600000000     0.062300000000     0.060600000000     0          
O69      O      0.085800000000     0.961000000000     0.035900000000     0          
C70      C      0.416200000000     0.025000000000     0.222500000000     0          
C71      C      0.195400000000     0.042700000000     0.170000000000     0          
H72      H      0.150800000000     0.025400000000     0.174900000000     0          
C73      C      0.153200000000     0.056500000000     0.099700000000     0          
C74      C      0.241300000000     0.047000000000     0.202700000000     0          
H75      H      0.229900000000     0.034700000000     0.229100000000     0          
C76      C      0.365500000000     0.077300000000     0.221300000000     0          
C77      C      0.412300000000     0.969400000000     0.189700000000     0          
H78      H      0.449500000000     0.936300000000     0.193500000000     0          
H79      H      0.368100000000     0.945800000000     0.191300000000     0          
H80      H      0.416900000000     0.991200000000     0.163700000000     0          
C81      C      0.211600000000     0.062600000000     0.130300000000     0          
C82      C      0.306900000000     0.072300000000     0.190600000000     0          
C83      C      0.276400000000     0.087900000000     0.116800000000     0          
H84      H      0.287800000000     0.100100000000     0.090400000000     0          
C85      C      0.320800000000     0.091600000000     0.150500000000     0          
H86      H      0.365300000000     0.109300000000     0.145600000000     0          
O87      O      0.528900000000     0.592800000000     0.390200000000     0          
O88      O      0.562300000000     0.674600000000     0.439400000000     0          
O89      O      0.461000000000     0.585800000000     0.464100000000     0          
C90      C      0.525000000000     0.916200000000     0.277500000000     0          
C91      C      0.542700000000     0.695400000000     0.330000000000     0          
H92      H      0.525400000000     0.650800000000     0.325100000000     0          
C93      C      0.556500000000     0.653200000000     0.400300000000     0          
C94      C      0.547000000000     0.741300000000     0.297300000000     0          
H95      H      0.534700000000     0.729900000000     0.270900000000     0          
C96      C      0.577300000000     0.865500000000     0.278700000000     0          
C97      C      0.469400000000     0.912300000000     0.310300000000     0          
H98      H      0.436300000000     0.949500000000     0.306500000000     0          
H99      H      0.445800000000     0.868100000000     0.308700000000     0          
H100     H      0.491200000000     0.916900000000     0.336300000000     0          
C101     C      0.562600000000     0.711600000000     0.369700000000     0          
C102     C      0.572300000000     0.806900000000     0.309400000000     0          
C103     C      0.587900000000     0.776400000000     0.383200000000     0          
H104     H      0.600100000000     0.787800000000     0.409600000000     0          
C105     C      0.591600000000     0.820800000000     0.349500000000     0          
H106     H      0.609300000000     0.865300000000     0.354400000000     0          
O107     O      0.471100000000     0.407200000000     0.390200000000     0          
O108     O      0.437700000000     0.325400000000     0.439400000000     0          
O109     O      0.539000000000     0.414200000000     0.464100000000     0          
C110     C      0.475000000000     0.083800000000     0.277500000000     0          
C111     C      0.457300000000     0.304600000000     0.330000000000     0          
H112     H      0.474600000000     0.349200000000     0.325100000000     0          
C113     C      0.443500000000     0.346800000000     0.400300000000     0          
C114     C      0.453000000000     0.258700000000     0.297300000000     0          
H115     H      0.465300000000     0.270100000000     0.270900000000     0          
C116     C      0.422700000000     0.134500000000     0.278700000000     0          
C117     C      0.530600000000     0.087700000000     0.310300000000     0          
H118     H      0.563700000000     0.050500000000     0.306500000000     0          
H119     H      0.554200000000     0.131900000000     0.308700000000     0          
H120     H      0.508800000000     0.083100000000     0.336300000000     0          
C121     C      0.437400000000     0.288400000000     0.369700000000     0          
C122     C      0.427700000000     0.193100000000     0.309400000000     0          
C123     C      0.412100000000     0.223600000000     0.383200000000     0          
H124     H      0.399900000000     0.212200000000     0.409600000000     0          
C125     C      0.408400000000     0.179200000000     0.349500000000     0          
H126     H      0.390700000000     0.134700000000     0.354400000000     0          
H127     H      0.322500000000     0.219800000000     0.271200000000     0          
H128     H      0.313300000000     0.210500000000     0.224400000000     0          
H129     H      0.268300000000     0.165600000000     0.254400000000     0          
O130     O      0.592800000000     0.471100000000     0.390200000000     0          
O131     O      0.674600000000     0.437700000000     0.439400000000     0          
O132     O      0.585800000000     0.539000000000     0.464100000000     0          
C133     C      0.916200000000     0.475000000000     0.277500000000     0          
C134     C      0.695400000000     0.457300000000     0.330000000000     0          
H135     H      0.650800000000     0.474600000000     0.325100000000     0          
C136     C      0.653200000000     0.443500000000     0.400300000000     0          
C137     C      0.741300000000     0.453000000000     0.297300000000     0          
H138     H      0.729900000000     0.465300000000     0.270900000000     0          
C139     C      0.865500000000     0.422700000000     0.278700000000     0          
C140     C      0.912300000000     0.530600000000     0.310300000000     0          
H141     H      0.949500000000     0.563700000000     0.306500000000     0          
H142     H      0.868100000000     0.554200000000     0.308700000000     0          
H143     H      0.916900000000     0.508800000000     0.336300000000     0          
C144     C      0.711600000000     0.437400000000     0.369700000000     0          
C145     C      0.806900000000     0.427700000000     0.309400000000     0          
C146     C      0.776400000000     0.412100000000     0.383200000000     0          
H147     H      0.787800000000     0.399900000000     0.409600000000     0          
C148     C      0.820800000000     0.408400000000     0.349500000000     0          
H149     H      0.865300000000     0.390700000000     0.354400000000     0          
H150     H      0.780200000000     0.322500000000     0.271200000000     0          
H151     H      0.789500000000     0.313300000000     0.224400000000     0          
H152     H      0.834400000000     0.268300000000     0.254400000000     0          
O153     O      0.407200000000     0.528900000000     0.390200000000     0          
O154     O      0.325400000000     0.562300000000     0.439400000000     0          
O155     O      0.414200000000     0.461000000000     0.464100000000     0          
C156     C      0.083800000000     0.525000000000     0.277500000000     0          
C157     C      0.304600000000     0.542700000000     0.330000000000     0          
H158     H      0.349200000000     0.525400000000     0.325100000000     0          
C159     C      0.346800000000     0.556500000000     0.400300000000     0          
C160     C      0.258700000000     0.547000000000     0.297300000000     0          
H161     H      0.270100000000     0.534700000000     0.270900000000     0          
C162     C      0.134500000000     0.577300000000     0.278700000000     0          
C163     C      0.087700000000     0.469400000000     0.310300000000     0          
H164     H      0.050500000000     0.436300000000     0.306500000000     0          
H165     H      0.131900000000     0.445800000000     0.308700000000     0          
H166     H      0.083100000000     0.491200000000     0.336300000000     0          
C167     C      0.288400000000     0.562600000000     0.369700000000     0          
C168     C      0.193100000000     0.572300000000     0.309400000000     0          
C169     C      0.223600000000     0.587900000000     0.383200000000     0          
H170     H      0.212200000000     0.600100000000     0.409600000000     0          
C171     C      0.179200000000     0.591600000000     0.349500000000     0          
H172     H      0.134700000000     0.609300000000     0.354400000000     0          
O173     O      0.028900000000     0.907200000000     0.890200000000     0          
O174     O      0.062300000000     0.825400000000     0.939400000000     0          
O175     O      0.961000000000     0.914200000000     0.964100000000     0          
C176     C      0.025000000000     0.583800000000     0.777500000000     0          
C177     C      0.042700000000     0.804600000000     0.830000000000     0          
H178     H      0.025400000000     0.849200000000     0.825100000000     0          
C179     C      0.056500000000     0.846800000000     0.900300000000     0          
C180     C      0.047000000000     0.758700000000     0.797300000000     0          
H181     H      0.034700000000     0.770100000000     0.770900000000     0          
C182     C      0.077300000000     0.634500000000     0.778700000000     0          
C183     C      0.969400000000     0.587700000000     0.810300000000     0          
H184     H      0.936300000000     0.550500000000     0.806500000000     0          
H185     H      0.945800000000     0.631900000000     0.808700000000     0          
H186     H      0.991200000000     0.583100000000     0.836300000000     0          
C187     C      0.062600000000     0.788400000000     0.869700000000     0          
C188     C      0.072300000000     0.693100000000     0.809400000000     0          
C189     C      0.087900000000     0.723600000000     0.883200000000     0          
H190     H      0.100100000000     0.712200000000     0.909600000000     0          
C191     C      0.091600000000     0.679200000000     0.849500000000     0          
H192     H      0.109300000000     0.634700000000     0.854400000000     0          
H193     H      0.177500000000     0.719800000000     0.771200000000     0          
H194     H      0.186700000000     0.710500000000     0.724400000000     0          
H195     H      0.231700000000     0.665600000000     0.754400000000     0          
O196     O      0.971100000000     0.092800000000     0.890200000000     0          
O197     O      0.937700000000     0.174600000000     0.939400000000     0          
O198     O      0.039000000000     0.085800000000     0.964100000000     0          
C199     C      0.975000000000     0.416200000000     0.777500000000     0          
C200     C      0.957300000000     0.195400000000     0.830000000000     0          
H201     H      0.974600000000     0.150800000000     0.825100000000     0          
C202     C      0.943500000000     0.153200000000     0.900300000000     0          
C203     C      0.953000000000     0.241300000000     0.797300000000     0          
H204     H      0.965300000000     0.229900000000     0.770900000000     0          
C205     C      0.922700000000     0.365500000000     0.778700000000     0          
C206     C      0.030600000000     0.412300000000     0.810300000000     0          
H207     H      0.063700000000     0.449500000000     0.806500000000     0          
H208     H      0.054200000000     0.368100000000     0.808700000000     0          
H209     H      0.008800000000     0.416900000000     0.836300000000     0          
C210     C      0.937400000000     0.211600000000     0.869700000000     0          
C211     C      0.927700000000     0.306900000000     0.809400000000     0          
C212     C      0.912100000000     0.276400000000     0.883200000000     0          
H213     H      0.899900000000     0.287800000000     0.909600000000     0          
C214     C      0.908400000000     0.320800000000     0.849500000000     0          
H215     H      0.890700000000     0.365300000000     0.854400000000     0          
O216     O      0.092800000000     0.028900000000     0.890200000000     0          
O217     O      0.174600000000     0.062300000000     0.939400000000     0          
O218     O      0.085800000000     0.961000000000     0.964100000000     0          
C219     C      0.416200000000     0.025000000000     0.777500000000     0          
C220     C      0.195400000000     0.042700000000     0.830000000000     0          
H221     H      0.150800000000     0.025400000000     0.825100000000     0          
C222     C      0.153200000000     0.056500000000     0.900300000000     0          
C223     C      0.241300000000     0.047000000000     0.797300000000     0          
H224     H      0.229900000000     0.034700000000     0.770900000000     0          
C225     C      0.365500000000     0.077300000000     0.778700000000     0          
C226     C      0.412300000000     0.969400000000     0.810300000000     0          
H227     H      0.449500000000     0.936300000000     0.806500000000     0          
H228     H      0.368100000000     0.945800000000     0.808700000000     0          
H229     H      0.416900000000     0.991200000000     0.836300000000     0          
C230     C      0.211600000000     0.062600000000     0.869700000000     0          
C231     C      0.306900000000     0.072300000000     0.809400000000     0          
C232     C      0.276400000000     0.087900000000     0.883200000000     0          
H233     H      0.287800000000     0.100100000000     0.909600000000     0          
C234     C      0.320800000000     0.091600000000     0.849500000000     0          
H235     H      0.365300000000     0.109300000000     0.854400000000     0          
H236     H      0.280200000000     0.177500000000     0.771200000000     0          
H237     H      0.289500000000     0.186700000000     0.724400000000     0          
H238     H      0.334400000000     0.231700000000     0.754400000000     0          
O239     O      0.907200000000     0.971100000000     0.890200000000     0          
O240     O      0.825400000000     0.937700000000     0.939400000000     0          
O241     O      0.914200000000     0.039000000000     0.964100000000     0          
C242     C      0.583800000000     0.975000000000     0.777500000000     0          
C243     C      0.804600000000     0.957300000000     0.830000000000     0          
H244     H      0.849200000000     0.974600000000     0.825100000000     0          
C245     C      0.846800000000     0.943500000000     0.900300000000     0          
C246     C      0.758700000000     0.953000000000     0.797300000000     0          
H247     H      0.770100000000     0.965300000000     0.770900000000     0          
C248     C      0.634500000000     0.922700000000     0.778700000000     0          
C249     C      0.587700000000     0.030600000000     0.810300000000     0          
H250     H      0.550500000000     0.063700000000     0.806500000000     0          
H251     H      0.631900000000     0.054200000000     0.808700000000     0          
H252     H      0.583100000000     0.008800000000     0.836300000000     0          
C253     C      0.788400000000     0.937400000000     0.869700000000     0          
C254     C      0.693100000000     0.927700000000     0.809400000000     0          
C255     C      0.723600000000     0.912100000000     0.883200000000     0          
H256     H      0.712200000000     0.899900000000     0.909600000000     0          
C257     C      0.679200000000     0.908400000000     0.849500000000     0          
H258     H      0.634700000000     0.890700000000     0.854400000000     0          
H259     H      0.719800000000     0.822500000000     0.771200000000     0          
H260     H      0.710500000000     0.813300000000     0.724400000000     0          
H261     H      0.665600000000     0.768300000000     0.754400000000     0          
O262     O      0.471100000000     0.407200000000     0.609800000000     0          
O263     O      0.437700000000     0.325400000000     0.560600000000     0          
O264     O      0.539000000000     0.414200000000     0.535900000000     0          
C265     C      0.475000000000     0.083800000000     0.722500000000     0          
C266     C      0.457300000000     0.304600000000     0.670000000000     0          
H267     H      0.474600000000     0.349200000000     0.674900000000     0          
C268     C      0.443500000000     0.346800000000     0.599700000000     0          
C269     C      0.453000000000     0.258700000000     0.702700000000     0          
H270     H      0.465300000000     0.270100000000     0.729100000000     0          
C271     C      0.422700000000     0.134500000000     0.721300000000     0          
C272     C      0.530600000000     0.087700000000     0.689700000000     0          
H273     H      0.563700000000     0.050500000000     0.693500000000     0          
H274     H      0.554200000000     0.131900000000     0.691300000000     0          
H275     H      0.508800000000     0.083100000000     0.663700000000     0          
C276     C      0.437400000000     0.288400000000     0.630300000000     0          
C277     C      0.427700000000     0.193100000000     0.690600000000     0          
C278     C      0.412100000000     0.223600000000     0.616800000000     0          
H279     H      0.399900000000     0.212200000000     0.590400000000     0          
C280     C      0.408400000000     0.179200000000     0.650500000000     0          
H281     H      0.390700000000     0.134700000000     0.645600000000     0          
O282     O      0.528900000000     0.592800000000     0.609800000000     0          
O283     O      0.562300000000     0.674600000000     0.560600000000     0          
O284     O      0.461000000000     0.585800000000     0.535900000000     0          
C285     C      0.525000000000     0.916200000000     0.722500000000     0          
C286     C      0.542700000000     0.695400000000     0.670000000000     0          
H287     H      0.525400000000     0.650800000000     0.674900000000     0          
C288     C      0.556500000000     0.653200000000     0.599700000000     0          
C289     C      0.547000000000     0.741300000000     0.702700000000     0          
H290     H      0.534700000000     0.729900000000     0.729100000000     0          
C291     C      0.577300000000     0.865500000000     0.721300000000     0          
C292     C      0.469400000000     0.912300000000     0.689700000000     0          
H293     H      0.436300000000     0.949500000000     0.693500000000     0          
H294     H      0.445800000000     0.868100000000     0.691300000000     0          
H295     H      0.491200000000     0.916900000000     0.663700000000     0          
C296     C      0.562600000000     0.711600000000     0.630300000000     0          
C297     C      0.572300000000     0.806900000000     0.690600000000     0          
C298     C      0.587900000000     0.776400000000     0.616800000000     0          
H299     H      0.600100000000     0.787800000000     0.590400000000     0          
C300     C      0.591600000000     0.820800000000     0.650500000000     0          
H301     H      0.609300000000     0.865300000000     0.645600000000     0          
O302     O      0.407200000000     0.528900000000     0.609800000000     0          
O303     O      0.325400000000     0.562300000000     0.560600000000     0          
O304     O      0.414200000000     0.461000000000     0.535900000000     0          
C305     C      0.083800000000     0.525000000000     0.722500000000     0          
C306     C      0.304600000000     0.542700000000     0.670000000000     0          
H307     H      0.349200000000     0.525400000000     0.674900000000     0          
C308     C      0.346800000000     0.556500000000     0.599700000000     0          
C309     C      0.258700000000     0.547000000000     0.702700000000     0          
H310     H      0.270100000000     0.534700000000     0.729100000000     0          
C311     C      0.134500000000     0.577300000000     0.721300000000     0          
C312     C      0.087700000000     0.469400000000     0.689700000000     0          
H313     H      0.050500000000     0.436300000000     0.693500000000     0          
H314     H      0.131900000000     0.445800000000     0.691300000000     0          
H315     H      0.083100000000     0.491200000000     0.663700000000     0          
C316     C      0.288400000000     0.562600000000     0.630300000000     0          
C317     C      0.193100000000     0.572300000000     0.690600000000     0          
C318     C      0.223600000000     0.587900000000     0.616800000000     0          
H319     H      0.212200000000     0.600100000000     0.590400000000     0          
C320     C      0.179200000000     0.591600000000     0.650500000000     0          
H321     H      0.134700000000     0.609300000000     0.645600000000     0          
O322     O      0.592800000000     0.471100000000     0.609800000000     0          
O323     O      0.674600000000     0.437700000000     0.560600000000     0          
O324     O      0.585800000000     0.539000000000     0.535900000000     0          
C325     C      0.916200000000     0.475000000000     0.722500000000     0          
C326     C      0.695400000000     0.457300000000     0.670000000000     0          
H327     H      0.650800000000     0.474600000000     0.674900000000     0          
C328     C      0.653200000000     0.443500000000     0.599700000000     0          
C329     C      0.741300000000     0.453000000000     0.702700000000     0          
H330     H      0.729900000000     0.465300000000     0.729100000000     0          
C331     C      0.865500000000     0.422700000000     0.721300000000     0          
C332     C      0.912300000000     0.530600000000     0.689700000000     0          
H333     H      0.949500000000     0.563700000000     0.693500000000     0          
H334     H      0.868100000000     0.554200000000     0.691300000000     0          
H335     H      0.916900000000     0.508800000000     0.663700000000     0          
C336     C      0.711600000000     0.437400000000     0.630300000000     0          
C337     C      0.806900000000     0.427700000000     0.690600000000     0          
C338     C      0.776400000000     0.412100000000     0.616800000000     0          
H339     H      0.787800000000     0.399900000000     0.590400000000     0          
C340     C      0.820800000000     0.408400000000     0.650500000000     0          
H341     H      0.865300000000     0.390700000000     0.645600000000     0          
H342     H      0.780200000000     0.322500000000     0.728800000000     0          
H343     H      0.789500000000     0.313300000000     0.775600000000     0          
H344     H      0.834400000000     0.268300000000     0.745600000000     0          
Zr345    Zr     0.122950000000     0.045800000000     0.000000000000     0          
Zr346    Zr     0.877050000000     0.954200000000     0.000000000000     0          
Zr347    Zr     0.954200000000     0.122950000000     0.000000000000     0          
Zr348    Zr     0.045800000000     0.877050000000     0.000000000000     0          
Zr349    Zr     0.377050000000     0.545800000000     0.500000000000     0          
Zr350    Zr     0.622950000000     0.454200000000     0.500000000000     0          
Zr351    Zr     0.545800000000     0.622950000000     0.500000000000     0          
Zr352    Zr     0.454200000000     0.377050000000     0.500000000000     0          
Zr353    Zr     0.000000000000     0.000000000000     0.073650000000     0          
Zr354    Zr     0.500000000000     0.500000000000     0.426350000000     0          
Zr355    Zr     0.000000000000     0.000000000000     0.926350000000     0          
Zr356    Zr     0.500000000000     0.500000000000     0.573650000000     0          
C357     C      0.972120000000     0.472120000000     0.250000000000     0          
C358     C      0.868900000000     0.368900000000     0.250000000000     0          
C359     C      0.813200000000     0.313200000000     0.250000000000     0          
C360     C      0.027880000000     0.527880000000     0.250000000000     0          
C361     C      0.131100000000     0.631100000000     0.250000000000     0          
C362     C      0.186800000000     0.686800000000     0.250000000000     0          
C363     C      0.527880000000     0.972120000000     0.250000000000     0          
C364     C      0.631100000000     0.868900000000     0.250000000000     0          
C365     C      0.686800000000     0.813200000000     0.250000000000     0          
C366     C      0.472120000000     0.027880000000     0.250000000000     0          
C367     C      0.368900000000     0.131100000000     0.250000000000     0          
C368     C      0.313200000000     0.186800000000     0.250000000000     0          
C369     C      0.027880000000     0.527880000000     0.750000000000     0          
C370     C      0.131100000000     0.631100000000     0.750000000000     0          
C371     C      0.186800000000     0.686800000000     0.750000000000     0          
C372     C      0.972120000000     0.472120000000     0.750000000000     0          
C373     C      0.868900000000     0.368900000000     0.750000000000     0          
C374     C      0.813200000000     0.313200000000     0.750000000000     0          
C375     C      0.472120000000     0.027880000000     0.750000000000     0          
C376     C      0.368900000000     0.131100000000     0.750000000000     0          
C377     C      0.313200000000     0.186800000000     0.750000000000     0          
C378     C      0.527880000000     0.972120000000     0.750000000000     0          
C379     C      0.631100000000     0.868900000000     0.750000000000     0          
C380     C      0.686800000000     0.813200000000     0.750000000000     0          


