data_NEVSUF02

_audit_creation_method RASPA-1.0
_audit_creation_date 2020-11-2
_audit_author_name 'Rocio Bueno-Perez'

_cell_length_a    19.0765
_cell_length_b    19.0765
_cell_length_c    33.061
_cell_angle_alpha 90
_cell_angle_beta  90
_cell_angle_gamma 90
_cell_volume      12031.3

_symmetry_cell_setting          triclinic
_symmetry_space_group_name_Hall 'P 1'
_symmetry_space_group_name_H-M  'P 1'
_symmetry_Int_Tables_number     1

_symmetry_equiv_pos_as_xyz 'x,y,z'

loop_
_atom_site_label
_atom_site_type_symbol
_atom_site_fract_x
_atom_site_fract_y
_atom_site_fract_z
_atom_site_charge
O1       O      0.971700000000     0.093000000000     0.108200000000     0          
O2       O      0.936900000000     0.173500000000     0.060200000000     0          
O3       O      0.038300000000     0.086000000000     0.036300000000     0          
C4       C      0.972000000000     0.416200000000     0.222800000000     0          
C5       C      0.960800000000     0.195300000000     0.170000000000     0          
H6       H      0.980400000000     0.151300000000     0.174100000000     0          
C7       C      0.942300000000     0.154900000000     0.099300000000     0          
C8       C      0.957200000000     0.240100000000     0.203400000000     0          
H9       H      0.971400000000     0.229000000000     0.229500000000     0          
C10      C      0.920400000000     0.365100000000     0.220700000000     0          
C11      C      0.027400000000     0.414700000000     0.190200000000     0          
H12      H      0.060200000000     0.452200000000     0.194600000000     0          
H13      H      0.051700000000     0.370700000000     0.191000000000     0          
H14      H      0.005600000000     0.420500000000     0.164200000000     0          
C15      C      0.937200000000     0.211500000000     0.131000000000     0          
C16      C      0.928500000000     0.304800000000     0.191100000000     0          
C17      C      0.909300000000     0.275200000000     0.117700000000     0          
H18      H      0.896000000000     0.286400000000     0.091400000000     0          
C19      C      0.905400000000     0.318900000000     0.151500000000     0          
H20      H      0.884900000000     0.362500000000     0.147400000000     0          
O21      O      0.028300000000     0.907000000000     0.108200000000     0          
O22      O      0.063100000000     0.826500000000     0.060200000000     0          
O23      O      0.961700000000     0.914000000000     0.036300000000     0          
C24      C      0.028000000000     0.583800000000     0.222800000000     0          
C25      C      0.039200000000     0.804700000000     0.170000000000     0          
H26      H      0.019600000000     0.848700000000     0.174100000000     0          
C27      C      0.057700000000     0.845100000000     0.099300000000     0          
C28      C      0.042800000000     0.759900000000     0.203400000000     0          
H29      H      0.028600000000     0.771000000000     0.229500000000     0          
C30      C      0.079600000000     0.634900000000     0.220700000000     0          
C31      C      0.972600000000     0.585300000000     0.190200000000     0          
H32      H      0.939800000000     0.547800000000     0.194600000000     0          
H33      H      0.948300000000     0.629300000000     0.191000000000     0          
H34      H      0.994400000000     0.579500000000     0.164200000000     0          
C35      C      0.062800000000     0.788500000000     0.131000000000     0          
C36      C      0.071500000000     0.695200000000     0.191100000000     0          
C37      C      0.090700000000     0.724800000000     0.117700000000     0          
H38      H      0.104000000000     0.713600000000     0.091400000000     0          
C39      C      0.094600000000     0.681100000000     0.151500000000     0          
H40      H      0.115100000000     0.637500000000     0.147400000000     0          
O41      O      0.907000000000     0.971700000000     0.108200000000     0          
O42      O      0.826500000000     0.936900000000     0.060200000000     0          
O43      O      0.914000000000     0.038300000000     0.036300000000     0          
C44      C      0.583800000000     0.972000000000     0.222800000000     0          
C45      C      0.804700000000     0.960800000000     0.170000000000     0          
H46      H      0.848700000000     0.980400000000     0.174100000000     0          
C47      C      0.845100000000     0.942300000000     0.099300000000     0          
C48      C      0.759900000000     0.957200000000     0.203400000000     0          
H49      H      0.771000000000     0.971400000000     0.229500000000     0          
C50      C      0.634900000000     0.920400000000     0.220700000000     0          
C51      C      0.585300000000     0.027400000000     0.190200000000     0          
H52      H      0.547800000000     0.060200000000     0.194600000000     0          
H53      H      0.629300000000     0.051700000000     0.191000000000     0          
H54      H      0.579500000000     0.005600000000     0.164200000000     0          
C55      C      0.788500000000     0.937200000000     0.131000000000     0          
C56      C      0.695200000000     0.928500000000     0.191100000000     0          
C57      C      0.724800000000     0.909300000000     0.117700000000     0          
H58      H      0.713600000000     0.896000000000     0.091400000000     0          
C59      C      0.681100000000     0.905400000000     0.151500000000     0          
H60      H      0.637500000000     0.884900000000     0.147400000000     0          
H61      H      0.720900000000     0.820000000000     0.228300000000     0          
H62      H      0.713200000000     0.812300000000     0.275300000000     0          
H63      H      0.667200000000     0.766300000000     0.246400000000     0          
O64      O      0.093000000000     0.028300000000     0.108200000000     0          
O65      O      0.173500000000     0.063100000000     0.060200000000     0          
O66      O      0.086000000000     0.961700000000     0.036300000000     0          
C67      C      0.416200000000     0.028000000000     0.222800000000     0          
C68      C      0.195300000000     0.039200000000     0.170000000000     0          
H69      H      0.151300000000     0.019600000000     0.174100000000     0          
C70      C      0.154900000000     0.057700000000     0.099300000000     0          
C71      C      0.240100000000     0.042800000000     0.203400000000     0          
H72      H      0.229000000000     0.028600000000     0.229500000000     0          
C73      C      0.365100000000     0.079600000000     0.220700000000     0          
C74      C      0.414700000000     0.972600000000     0.190200000000     0          
H75      H      0.452200000000     0.939800000000     0.194600000000     0          
H76      H      0.370700000000     0.948300000000     0.191000000000     0          
H77      H      0.420500000000     0.994400000000     0.164200000000     0          
C78      C      0.211500000000     0.062800000000     0.131000000000     0          
C79      C      0.304800000000     0.071500000000     0.191100000000     0          
C80      C      0.275200000000     0.090700000000     0.117700000000     0          
H81      H      0.286400000000     0.104000000000     0.091400000000     0          
C82      C      0.318900000000     0.094600000000     0.151500000000     0          
H83      H      0.362500000000     0.115100000000     0.147400000000     0          
H84      H      0.279100000000     0.180000000000     0.228300000000     0          
H85      H      0.286800000000     0.187700000000     0.275300000000     0          
H86      H      0.332800000000     0.233700000000     0.246400000000     0          
O87      O      0.528300000000     0.593000000000     0.391800000000     0          
O88      O      0.563100000000     0.673500000000     0.439800000000     0          
O89      O      0.461700000000     0.586000000000     0.463700000000     0          
C90      C      0.528000000000     0.916200000000     0.277200000000     0          
C91      C      0.539200000000     0.695300000000     0.330000000000     0          
H92      H      0.519600000000     0.651300000000     0.325900000000     0          
C93      C      0.557700000000     0.654900000000     0.400700000000     0          
C94      C      0.542800000000     0.740100000000     0.296600000000     0          
H95      H      0.528600000000     0.729000000000     0.270500000000     0          
C96      C      0.579600000000     0.865100000000     0.279300000000     0          
C97      C      0.472600000000     0.914700000000     0.309800000000     0          
H98      H      0.439800000000     0.952200000000     0.305400000000     0          
H99      H      0.448300000000     0.870700000000     0.309000000000     0          
H100     H      0.494400000000     0.920500000000     0.335800000000     0          
C101     C      0.562800000000     0.711500000000     0.369000000000     0          
C102     C      0.571500000000     0.804800000000     0.308900000000     0          
C103     C      0.590700000000     0.775200000000     0.382300000000     0          
H104     H      0.604000000000     0.786400000000     0.408600000000     0          
C105     C      0.594600000000     0.818900000000     0.348500000000     0          
H106     H      0.615100000000     0.862500000000     0.352600000000     0          
O107     O      0.471700000000     0.407000000000     0.391800000000     0          
O108     O      0.436900000000     0.326500000000     0.439800000000     0          
O109     O      0.538300000000     0.414000000000     0.463700000000     0          
C110     C      0.472000000000     0.083800000000     0.277200000000     0          
C111     C      0.460800000000     0.304700000000     0.330000000000     0          
H112     H      0.480400000000     0.348700000000     0.325900000000     0          
C113     C      0.442300000000     0.345100000000     0.400700000000     0          
C114     C      0.457200000000     0.259900000000     0.296600000000     0          
H115     H      0.471400000000     0.271000000000     0.270500000000     0          
C116     C      0.420400000000     0.134900000000     0.279300000000     0          
C117     C      0.527400000000     0.085300000000     0.309800000000     0          
H118     H      0.560200000000     0.047800000000     0.305400000000     0          
H119     H      0.551700000000     0.129300000000     0.309000000000     0          
H120     H      0.505600000000     0.079500000000     0.335800000000     0          
C121     C      0.437200000000     0.288500000000     0.369000000000     0          
C122     C      0.428500000000     0.195200000000     0.308900000000     0          
C123     C      0.409300000000     0.224800000000     0.382300000000     0          
H124     H      0.396000000000     0.213600000000     0.408600000000     0          
C125     C      0.405400000000     0.181100000000     0.348500000000     0          
H126     H      0.384900000000     0.137500000000     0.352600000000     0          
O127     O      0.593000000000     0.471700000000     0.391800000000     0          
O128     O      0.673500000000     0.436900000000     0.439800000000     0          
O129     O      0.586000000000     0.538300000000     0.463700000000     0          
C130     C      0.916200000000     0.472000000000     0.277200000000     0          
C131     C      0.695300000000     0.460800000000     0.330000000000     0          
H132     H      0.651300000000     0.480400000000     0.325900000000     0          
C133     C      0.654900000000     0.442300000000     0.400700000000     0          
C134     C      0.740100000000     0.457200000000     0.296600000000     0          
H135     H      0.729000000000     0.471400000000     0.270500000000     0          
C136     C      0.865100000000     0.420400000000     0.279300000000     0          
C137     C      0.914700000000     0.527400000000     0.309800000000     0          
H138     H      0.952200000000     0.560200000000     0.305400000000     0          
H139     H      0.870700000000     0.551700000000     0.309000000000     0          
H140     H      0.920500000000     0.505600000000     0.335800000000     0          
C141     C      0.711500000000     0.437200000000     0.369000000000     0          
C142     C      0.804800000000     0.428500000000     0.308900000000     0          
C143     C      0.775200000000     0.409300000000     0.382300000000     0          
H144     H      0.786400000000     0.396000000000     0.408600000000     0          
C145     C      0.818900000000     0.405400000000     0.348500000000     0          
H146     H      0.862500000000     0.384900000000     0.352600000000     0          
H147     H      0.779100000000     0.320000000000     0.271700000000     0          
H148     H      0.786800000000     0.312300000000     0.224700000000     0          
H149     H      0.832800000000     0.266300000000     0.253600000000     0          
O150     O      0.407000000000     0.528300000000     0.391800000000     0          
O151     O      0.326500000000     0.563100000000     0.439800000000     0          
O152     O      0.414000000000     0.461700000000     0.463700000000     0          
C153     C      0.083800000000     0.528000000000     0.277200000000     0          
C154     C      0.304700000000     0.539200000000     0.330000000000     0          
H155     H      0.348700000000     0.519600000000     0.325900000000     0          
C156     C      0.345100000000     0.557700000000     0.400700000000     0          
C157     C      0.259900000000     0.542800000000     0.296600000000     0          
H158     H      0.271000000000     0.528600000000     0.270500000000     0          
C159     C      0.134900000000     0.579600000000     0.279300000000     0          
C160     C      0.085300000000     0.472600000000     0.309800000000     0          
H161     H      0.047800000000     0.439800000000     0.305400000000     0          
H162     H      0.129300000000     0.448300000000     0.309000000000     0          
H163     H      0.079500000000     0.494400000000     0.335800000000     0          
C164     C      0.288500000000     0.562800000000     0.369000000000     0          
C165     C      0.195200000000     0.571500000000     0.308900000000     0          
C166     C      0.224800000000     0.590700000000     0.382300000000     0          
H167     H      0.213600000000     0.604000000000     0.408600000000     0          
C168     C      0.181100000000     0.594600000000     0.348500000000     0          
H169     H      0.137500000000     0.615100000000     0.352600000000     0          
H170     H      0.220900000000     0.680000000000     0.271700000000     0          
H171     H      0.213200000000     0.687700000000     0.224700000000     0          
H172     H      0.167200000000     0.733700000000     0.253600000000     0          
O173     O      0.028300000000     0.907000000000     0.891800000000     0          
O174     O      0.063100000000     0.826500000000     0.939800000000     0          
O175     O      0.961700000000     0.914000000000     0.963700000000     0          
C176     C      0.028000000000     0.583800000000     0.777200000000     0          
C177     C      0.039200000000     0.804700000000     0.830000000000     0          
H178     H      0.019600000000     0.848700000000     0.825900000000     0          
C179     C      0.057700000000     0.845100000000     0.900700000000     0          
C180     C      0.042800000000     0.759900000000     0.796600000000     0          
H181     H      0.028600000000     0.771000000000     0.770500000000     0          
C182     C      0.079600000000     0.634900000000     0.779300000000     0          
C183     C      0.972600000000     0.585300000000     0.809800000000     0          
H184     H      0.939800000000     0.547800000000     0.805400000000     0          
H185     H      0.948300000000     0.629300000000     0.809000000000     0          
H186     H      0.994400000000     0.579500000000     0.835800000000     0          
C187     C      0.062800000000     0.788500000000     0.869000000000     0          
C188     C      0.071500000000     0.695200000000     0.808900000000     0          
C189     C      0.090700000000     0.724800000000     0.882300000000     0          
H190     H      0.104000000000     0.713600000000     0.908600000000     0          
C191     C      0.094600000000     0.681100000000     0.848500000000     0          
H192     H      0.115100000000     0.637500000000     0.852600000000     0          
H193     H      0.180000000000     0.720900000000     0.771700000000     0          
H194     H      0.187700000000     0.713200000000     0.724700000000     0          
H195     H      0.233700000000     0.667200000000     0.753600000000     0          
O196     O      0.971700000000     0.093000000000     0.891800000000     0          
O197     O      0.936900000000     0.173500000000     0.939800000000     0          
O198     O      0.038300000000     0.086000000000     0.963700000000     0          
C199     C      0.972000000000     0.416200000000     0.777200000000     0          
C200     C      0.960800000000     0.195300000000     0.830000000000     0          
H201     H      0.980400000000     0.151300000000     0.825900000000     0          
C202     C      0.942300000000     0.154900000000     0.900700000000     0          
C203     C      0.957200000000     0.240100000000     0.796600000000     0          
H204     H      0.971400000000     0.229000000000     0.770500000000     0          
C205     C      0.920400000000     0.365100000000     0.779300000000     0          
C206     C      0.027400000000     0.414700000000     0.809800000000     0          
H207     H      0.060200000000     0.452200000000     0.805400000000     0          
H208     H      0.051700000000     0.370700000000     0.809000000000     0          
H209     H      0.005600000000     0.420500000000     0.835800000000     0          
C210     C      0.937200000000     0.211500000000     0.869000000000     0          
C211     C      0.928500000000     0.304800000000     0.808900000000     0          
C212     C      0.909300000000     0.275200000000     0.882300000000     0          
H213     H      0.896000000000     0.286400000000     0.908600000000     0          
C214     C      0.905400000000     0.318900000000     0.848500000000     0          
H215     H      0.884900000000     0.362500000000     0.852600000000     0          
O216     O      0.093000000000     0.028300000000     0.891800000000     0          
O217     O      0.173500000000     0.063100000000     0.939800000000     0          
O218     O      0.086000000000     0.961700000000     0.963700000000     0          
C219     C      0.416200000000     0.028000000000     0.777200000000     0          
C220     C      0.195300000000     0.039200000000     0.830000000000     0          
H221     H      0.151300000000     0.019600000000     0.825900000000     0          
C222     C      0.154900000000     0.057700000000     0.900700000000     0          
C223     C      0.240100000000     0.042800000000     0.796600000000     0          
H224     H      0.229000000000     0.028600000000     0.770500000000     0          
C225     C      0.365100000000     0.079600000000     0.779300000000     0          
C226     C      0.414700000000     0.972600000000     0.809800000000     0          
H227     H      0.452200000000     0.939800000000     0.805400000000     0          
H228     H      0.370700000000     0.948300000000     0.809000000000     0          
H229     H      0.420500000000     0.994400000000     0.835800000000     0          
C230     C      0.211500000000     0.062800000000     0.869000000000     0          
C231     C      0.304800000000     0.071500000000     0.808900000000     0          
C232     C      0.275200000000     0.090700000000     0.882300000000     0          
H233     H      0.286400000000     0.104000000000     0.908600000000     0          
C234     C      0.318900000000     0.094600000000     0.848500000000     0          
H235     H      0.362500000000     0.115100000000     0.852600000000     0          
H236     H      0.279100000000     0.180000000000     0.771700000000     0          
H237     H      0.286800000000     0.187700000000     0.724700000000     0          
H238     H      0.332800000000     0.233700000000     0.753600000000     0          
O239     O      0.907000000000     0.971700000000     0.891800000000     0          
O240     O      0.826500000000     0.936900000000     0.939800000000     0          
O241     O      0.914000000000     0.038300000000     0.963700000000     0          
C242     C      0.583800000000     0.972000000000     0.777200000000     0          
C243     C      0.804700000000     0.960800000000     0.830000000000     0          
H244     H      0.848700000000     0.980400000000     0.825900000000     0          
C245     C      0.845100000000     0.942300000000     0.900700000000     0          
C246     C      0.759900000000     0.957200000000     0.796600000000     0          
H247     H      0.771000000000     0.971400000000     0.770500000000     0          
C248     C      0.634900000000     0.920400000000     0.779300000000     0          
C249     C      0.585300000000     0.027400000000     0.809800000000     0          
H250     H      0.547800000000     0.060200000000     0.805400000000     0          
H251     H      0.629300000000     0.051700000000     0.809000000000     0          
H252     H      0.579500000000     0.005600000000     0.835800000000     0          
C253     C      0.788500000000     0.937200000000     0.869000000000     0          
C254     C      0.695200000000     0.928500000000     0.808900000000     0          
C255     C      0.724800000000     0.909300000000     0.882300000000     0          
H256     H      0.713600000000     0.896000000000     0.908600000000     0          
C257     C      0.681100000000     0.905400000000     0.848500000000     0          
H258     H      0.637500000000     0.884900000000     0.852600000000     0          
O259     O      0.471700000000     0.407000000000     0.608200000000     0          
O260     O      0.436900000000     0.326500000000     0.560200000000     0          
O261     O      0.538300000000     0.414000000000     0.536300000000     0          
C262     C      0.472000000000     0.083800000000     0.722800000000     0          
C263     C      0.460800000000     0.304700000000     0.670000000000     0          
H264     H      0.480400000000     0.348700000000     0.674100000000     0          
C265     C      0.442300000000     0.345100000000     0.599300000000     0          
C266     C      0.457200000000     0.259900000000     0.703400000000     0          
H267     H      0.471400000000     0.271000000000     0.729500000000     0          
C268     C      0.420400000000     0.134900000000     0.720700000000     0          
C269     C      0.527400000000     0.085300000000     0.690200000000     0          
H270     H      0.560200000000     0.047800000000     0.694600000000     0          
H271     H      0.551700000000     0.129300000000     0.691000000000     0          
H272     H      0.505600000000     0.079500000000     0.664200000000     0          
C273     C      0.437200000000     0.288500000000     0.631000000000     0          
C274     C      0.428500000000     0.195200000000     0.691100000000     0          
C275     C      0.409300000000     0.224800000000     0.617700000000     0          
H276     H      0.396000000000     0.213600000000     0.591400000000     0          
C277     C      0.405400000000     0.181100000000     0.651500000000     0          
H278     H      0.384900000000     0.137500000000     0.647400000000     0          
O279     O      0.528300000000     0.593000000000     0.608200000000     0          
O280     O      0.563100000000     0.673500000000     0.560200000000     0          
O281     O      0.461700000000     0.586000000000     0.536300000000     0          
C282     C      0.528000000000     0.916200000000     0.722800000000     0          
C283     C      0.539200000000     0.695300000000     0.670000000000     0          
H284     H      0.519600000000     0.651300000000     0.674100000000     0          
C285     C      0.557700000000     0.654900000000     0.599300000000     0          
C286     C      0.542800000000     0.740100000000     0.703400000000     0          
H287     H      0.528600000000     0.729000000000     0.729500000000     0          
C288     C      0.579600000000     0.865100000000     0.720700000000     0          
C289     C      0.472600000000     0.914700000000     0.690200000000     0          
H290     H      0.439800000000     0.952200000000     0.694600000000     0          
H291     H      0.448300000000     0.870700000000     0.691000000000     0          
H292     H      0.494400000000     0.920500000000     0.664200000000     0          
C293     C      0.562800000000     0.711500000000     0.631000000000     0          
C294     C      0.571500000000     0.804800000000     0.691100000000     0          
C295     C      0.590700000000     0.775200000000     0.617700000000     0          
H296     H      0.604000000000     0.786400000000     0.591400000000     0          
C297     C      0.594600000000     0.818900000000     0.651500000000     0          
H298     H      0.615100000000     0.862500000000     0.647400000000     0          
H299     H      0.680000000000     0.779100000000     0.728300000000     0          
H300     H      0.687700000000     0.786800000000     0.775300000000     0          
H301     H      0.733700000000     0.832800000000     0.746400000000     0          
O302     O      0.407000000000     0.528300000000     0.608200000000     0          
O303     O      0.326500000000     0.563100000000     0.560200000000     0          
O304     O      0.414000000000     0.461700000000     0.536300000000     0          
C305     C      0.083800000000     0.528000000000     0.722800000000     0          
C306     C      0.304700000000     0.539200000000     0.670000000000     0          
H307     H      0.348700000000     0.519600000000     0.674100000000     0          
C308     C      0.345100000000     0.557700000000     0.599300000000     0          
C309     C      0.259900000000     0.542800000000     0.703400000000     0          
H310     H      0.271000000000     0.528600000000     0.729500000000     0          
C311     C      0.134900000000     0.579600000000     0.720700000000     0          
C312     C      0.085300000000     0.472600000000     0.690200000000     0          
H313     H      0.047800000000     0.439800000000     0.694600000000     0          
H314     H      0.129300000000     0.448300000000     0.691000000000     0          
H315     H      0.079500000000     0.494400000000     0.664200000000     0          
C316     C      0.288500000000     0.562800000000     0.631000000000     0          
C317     C      0.195200000000     0.571500000000     0.691100000000     0          
C318     C      0.224800000000     0.590700000000     0.617700000000     0          
H319     H      0.213600000000     0.604000000000     0.591400000000     0          
C320     C      0.181100000000     0.594600000000     0.651500000000     0          
H321     H      0.137500000000     0.615100000000     0.647400000000     0          
O322     O      0.593000000000     0.471700000000     0.608200000000     0          
O323     O      0.673500000000     0.436900000000     0.560200000000     0          
O324     O      0.586000000000     0.538300000000     0.536300000000     0          
C325     C      0.916200000000     0.472000000000     0.722800000000     0          
C326     C      0.695300000000     0.460800000000     0.670000000000     0          
H327     H      0.651300000000     0.480400000000     0.674100000000     0          
C328     C      0.654900000000     0.442300000000     0.599300000000     0          
C329     C      0.740100000000     0.457200000000     0.703400000000     0          
H330     H      0.729000000000     0.471400000000     0.729500000000     0          
C331     C      0.865100000000     0.420400000000     0.720700000000     0          
C332     C      0.914700000000     0.527400000000     0.690200000000     0          
H333     H      0.952200000000     0.560200000000     0.694600000000     0          
H334     H      0.870700000000     0.551700000000     0.691000000000     0          
H335     H      0.920500000000     0.505600000000     0.664200000000     0          
C336     C      0.711500000000     0.437200000000     0.631000000000     0          
C337     C      0.804800000000     0.428500000000     0.691100000000     0          
C338     C      0.775200000000     0.409300000000     0.617700000000     0          
H339     H      0.786400000000     0.396000000000     0.591400000000     0          
C340     C      0.818900000000     0.405400000000     0.651500000000     0          
H341     H      0.862500000000     0.384900000000     0.647400000000     0          
H342     H      0.779100000000     0.320000000000     0.728300000000     0          
H343     H      0.786800000000     0.312300000000     0.775300000000     0          
H344     H      0.832800000000     0.266300000000     0.746400000000     0          
Zr345    Zr     0.123100000000     0.045700000000     0.000000000000     0          
Zr346    Zr     0.876900000000     0.954300000000     0.000000000000     0          
Zr347    Zr     0.954300000000     0.123100000000     0.000000000000     0          
Zr348    Zr     0.045700000000     0.876900000000     0.000000000000     0          
Zr349    Zr     0.376900000000     0.545700000000     0.500000000000     0          
Zr350    Zr     0.623100000000     0.454300000000     0.500000000000     0          
Zr351    Zr     0.545700000000     0.623100000000     0.500000000000     0          
Zr352    Zr     0.454300000000     0.376900000000     0.500000000000     0          
Zr353    Zr     0.000000000000     0.000000000000     0.073390000000     0          
Zr354    Zr     0.500000000000     0.500000000000     0.426610000000     0          
Zr355    Zr     0.000000000000     0.000000000000     0.926610000000     0          
Zr356    Zr     0.500000000000     0.500000000000     0.573390000000     0          
C357     C      0.972230000000     0.472230000000     0.250000000000     0          
C358     C      0.867200000000     0.367200000000     0.250000000000     0          
C359     C      0.811400000000     0.311400000000     0.250000000000     0          
C360     C      0.027770000000     0.527770000000     0.250000000000     0          
C361     C      0.132800000000     0.632800000000     0.250000000000     0          
C362     C      0.188600000000     0.688600000000     0.250000000000     0          
C363     C      0.527770000000     0.972230000000     0.250000000000     0          
C364     C      0.632800000000     0.867200000000     0.250000000000     0          
C365     C      0.688600000000     0.811400000000     0.250000000000     0          
C366     C      0.472230000000     0.027770000000     0.250000000000     0          
C367     C      0.367200000000     0.132800000000     0.250000000000     0          
C368     C      0.311400000000     0.188600000000     0.250000000000     0          
C369     C      0.027770000000     0.527770000000     0.750000000000     0          
C370     C      0.132800000000     0.632800000000     0.750000000000     0          
C371     C      0.188600000000     0.688600000000     0.750000000000     0          
C372     C      0.972230000000     0.472230000000     0.750000000000     0          
C373     C      0.867200000000     0.367200000000     0.750000000000     0          
C374     C      0.811400000000     0.311400000000     0.750000000000     0          
C375     C      0.472230000000     0.027770000000     0.750000000000     0          
C376     C      0.367200000000     0.132800000000     0.750000000000     0          
C377     C      0.311400000000     0.188600000000     0.750000000000     0          
C378     C      0.527770000000     0.972230000000     0.750000000000     0          
C379     C      0.632800000000     0.867200000000     0.750000000000     0          
C380     C      0.688600000000     0.811400000000     0.750000000000     0          


