data_NEVSUF

_audit_creation_method RASPA-1.0
_audit_creation_date 2020-11-2
_audit_author_name 'Rocio Bueno-Perez'

_cell_length_a    19.28
_cell_length_b    19.28
_cell_length_c    32.89
_cell_angle_alpha 90
_cell_angle_beta  90
_cell_angle_gamma 90
_cell_volume      12225.8

_symmetry_cell_setting          triclinic
_symmetry_space_group_name_Hall 'P 1'
_symmetry_space_group_name_H-M  'P 1'
_symmetry_Int_Tables_number     1

_symmetry_equiv_pos_as_xyz 'x,y,z'

loop_
_atom_site_label
_atom_site_type_symbol
_atom_site_fract_x
_atom_site_fract_y
_atom_site_fract_z
_atom_site_charge
O1       O      0.972100000000     0.092000000000     0.109600000000     0          
O2       O      0.939400000000     0.172400000000     0.061400000000     0          
O3       O      0.039100000000     0.081800000000     0.036200000000     0          
C4       C      0.976000000000     0.416400000000     0.222200000000     0          
C5       C      0.960800000000     0.196800000000     0.170900000000     0          
H6       H      0.980600000000     0.153600000000     0.175900000000     0          
C7       C      0.943400000000     0.151200000000     0.101600000000     0          
C8       C      0.956700000000     0.243300000000     0.203400000000     0          
H9       H      0.970700000000     0.233200000000     0.229800000000     0          
C10      C      0.922500000000     0.366400000000     0.221400000000     0          
C11      C      0.036800000000     0.411500000000     0.193200000000     0          
H12      H      0.057700000000     0.456500000000     0.190200000000     0          
H13      H      0.020900000000     0.395500000000     0.167200000000     0          
H14      H      0.070400000000     0.379600000000     0.203800000000     0          
C15      C      0.937200000000     0.210400000000     0.131500000000     0          
C16      C      0.928800000000     0.307400000000     0.191200000000     0          
C17      C      0.908800000000     0.272400000000     0.116600000000     0          
H18      H      0.895000000000     0.282700000000     0.090200000000     0          
C19      C      0.906500000000     0.315000000000     0.150900000000     0          
H20      H      0.885600000000     0.357700000000     0.145900000000     0          
H21      H      0.822100000000     0.280100000000     0.228700000000     0          
H22      H      0.812900000000     0.289300000000     0.275700000000     0          
H23      H      0.768300000000     0.333900000000     0.245600000000     0          
O24      O      0.027900000000     0.908000000000     0.109600000000     0          
O25      O      0.060600000000     0.827600000000     0.061400000000     0          
O26      O      0.960900000000     0.918200000000     0.036200000000     0          
C27      C      0.024000000000     0.583600000000     0.222200000000     0          
C28      C      0.039200000000     0.803200000000     0.170900000000     0          
H29      H      0.019400000000     0.846400000000     0.175900000000     0          
C30      C      0.056600000000     0.848800000000     0.101600000000     0          
C31      C      0.043300000000     0.756700000000     0.203400000000     0          
H32      H      0.029300000000     0.766800000000     0.229800000000     0          
C33      C      0.077500000000     0.633600000000     0.221400000000     0          
C34      C      0.963200000000     0.588500000000     0.193200000000     0          
H35      H      0.942300000000     0.543500000000     0.190200000000     0          
H36      H      0.979100000000     0.604500000000     0.167200000000     0          
H37      H      0.929600000000     0.620400000000     0.203800000000     0          
C38      C      0.062800000000     0.789600000000     0.131500000000     0          
C39      C      0.071200000000     0.692600000000     0.191200000000     0          
C40      C      0.091200000000     0.727600000000     0.116600000000     0          
H41      H      0.105000000000     0.717300000000     0.090200000000     0          
C42      C      0.093500000000     0.685000000000     0.150900000000     0          
H43      H      0.114400000000     0.642300000000     0.145900000000     0          
H44      H      0.177900000000     0.719900000000     0.228700000000     0          
H45      H      0.187100000000     0.710700000000     0.275700000000     0          
H46      H      0.231700000000     0.666100000000     0.245600000000     0          
O47      O      0.908000000000     0.972100000000     0.109600000000     0          
O48      O      0.827600000000     0.939400000000     0.061400000000     0          
O49      O      0.918200000000     0.039100000000     0.036200000000     0          
C50      C      0.583600000000     0.976000000000     0.222200000000     0          
C51      C      0.803200000000     0.960800000000     0.170900000000     0          
H52      H      0.846400000000     0.980600000000     0.175900000000     0          
C53      C      0.848800000000     0.943400000000     0.101600000000     0          
C54      C      0.756700000000     0.956700000000     0.203400000000     0          
H55      H      0.766800000000     0.970700000000     0.229800000000     0          
C56      C      0.633600000000     0.922500000000     0.221400000000     0          
C57      C      0.588500000000     0.036800000000     0.193200000000     0          
H58      H      0.543500000000     0.057700000000     0.190200000000     0          
H59      H      0.604500000000     0.020900000000     0.167200000000     0          
H60      H      0.620400000000     0.070400000000     0.203800000000     0          
C61      C      0.789600000000     0.937200000000     0.131500000000     0          
C62      C      0.692600000000     0.928800000000     0.191200000000     0          
C63      C      0.727600000000     0.908800000000     0.116600000000     0          
H64      H      0.717300000000     0.895000000000     0.090200000000     0          
C65      C      0.685000000000     0.906500000000     0.150900000000     0          
H66      H      0.642300000000     0.885600000000     0.145900000000     0          
O67      O      0.092000000000     0.027900000000     0.109600000000     0          
O68      O      0.172400000000     0.060600000000     0.061400000000     0          
O69      O      0.081800000000     0.960900000000     0.036200000000     0          
C70      C      0.416400000000     0.024000000000     0.222200000000     0          
C71      C      0.196800000000     0.039200000000     0.170900000000     0          
H72      H      0.153600000000     0.019400000000     0.175900000000     0          
C73      C      0.151200000000     0.056600000000     0.101600000000     0          
C74      C      0.243300000000     0.043300000000     0.203400000000     0          
H75      H      0.233200000000     0.029300000000     0.229800000000     0          
C76      C      0.366400000000     0.077500000000     0.221400000000     0          
C77      C      0.411500000000     0.963200000000     0.193200000000     0          
H78      H      0.456500000000     0.942300000000     0.190200000000     0          
H79      H      0.395500000000     0.979100000000     0.167200000000     0          
H80      H      0.379600000000     0.929600000000     0.203800000000     0          
C81      C      0.210400000000     0.062800000000     0.131500000000     0          
C82      C      0.307400000000     0.071200000000     0.191200000000     0          
C83      C      0.272400000000     0.091200000000     0.116600000000     0          
H84      H      0.282700000000     0.105000000000     0.090200000000     0          
C85      C      0.315000000000     0.093500000000     0.150900000000     0          
H86      H      0.357700000000     0.114400000000     0.145900000000     0          
O87      O      0.527900000000     0.592000000000     0.390400000000     0          
O88      O      0.560600000000     0.672400000000     0.438600000000     0          
O89      O      0.460900000000     0.581800000000     0.463800000000     0          
C90      C      0.524000000000     0.916400000000     0.277800000000     0          
C91      C      0.539200000000     0.696800000000     0.329100000000     0          
H92      H      0.519400000000     0.653600000000     0.324100000000     0          
C93      C      0.556600000000     0.651200000000     0.398400000000     0          
C94      C      0.543300000000     0.743300000000     0.296600000000     0          
H95      H      0.529300000000     0.733200000000     0.270200000000     0          
C96      C      0.577500000000     0.866400000000     0.278600000000     0          
C97      C      0.463200000000     0.911500000000     0.306800000000     0          
H98      H      0.442300000000     0.956500000000     0.309800000000     0          
H99      H      0.479100000000     0.895500000000     0.332800000000     0          
H100     H      0.429600000000     0.879600000000     0.296200000000     0          
C101     C      0.562800000000     0.710400000000     0.368500000000     0          
C102     C      0.571200000000     0.807400000000     0.308800000000     0          
C103     C      0.591200000000     0.772400000000     0.383400000000     0          
H104     H      0.605000000000     0.782700000000     0.409800000000     0          
C105     C      0.593500000000     0.815000000000     0.349100000000     0          
H106     H      0.614400000000     0.857700000000     0.354100000000     0          
H107     H      0.677900000000     0.780100000000     0.271300000000     0          
H108     H      0.687100000000     0.789300000000     0.224300000000     0          
H109     H      0.731700000000     0.833900000000     0.254400000000     0          
O110     O      0.472100000000     0.408000000000     0.390400000000     0          
O111     O      0.439400000000     0.327600000000     0.438600000000     0          
O112     O      0.539100000000     0.418200000000     0.463800000000     0          
C113     C      0.476000000000     0.083600000000     0.277800000000     0          
C114     C      0.460800000000     0.303200000000     0.329100000000     0          
H115     H      0.480600000000     0.346400000000     0.324100000000     0          
C116     C      0.443400000000     0.348800000000     0.398400000000     0          
C117     C      0.456700000000     0.256700000000     0.296600000000     0          
H118     H      0.470700000000     0.266800000000     0.270200000000     0          
C119     C      0.422500000000     0.133600000000     0.278600000000     0          
C120     C      0.536800000000     0.088500000000     0.306800000000     0          
H121     H      0.557700000000     0.043500000000     0.309800000000     0          
H122     H      0.520900000000     0.104500000000     0.332800000000     0          
H123     H      0.570400000000     0.120400000000     0.296200000000     0          
C124     C      0.437200000000     0.289600000000     0.368500000000     0          
C125     C      0.428800000000     0.192600000000     0.308800000000     0          
C126     C      0.408800000000     0.227600000000     0.383400000000     0          
H127     H      0.395000000000     0.217300000000     0.409800000000     0          
C128     C      0.406500000000     0.185000000000     0.349100000000     0          
H129     H      0.385600000000     0.142300000000     0.354100000000     0          
H130     H      0.322100000000     0.219900000000     0.271300000000     0          
H131     H      0.312900000000     0.210700000000     0.224300000000     0          
H132     H      0.268300000000     0.166100000000     0.254400000000     0          
O133     O      0.592000000000     0.472100000000     0.390400000000     0          
O134     O      0.672400000000     0.439400000000     0.438600000000     0          
O135     O      0.581800000000     0.539100000000     0.463800000000     0          
C136     C      0.916400000000     0.476000000000     0.277800000000     0          
C137     C      0.696800000000     0.460800000000     0.329100000000     0          
H138     H      0.653600000000     0.480600000000     0.324100000000     0          
C139     C      0.651200000000     0.443400000000     0.398400000000     0          
C140     C      0.743300000000     0.456700000000     0.296600000000     0          
H141     H      0.733200000000     0.470700000000     0.270200000000     0          
C142     C      0.866400000000     0.422500000000     0.278600000000     0          
C143     C      0.911500000000     0.536800000000     0.306800000000     0          
H144     H      0.956500000000     0.557700000000     0.309800000000     0          
H145     H      0.895500000000     0.520900000000     0.332800000000     0          
H146     H      0.879600000000     0.570400000000     0.296200000000     0          
C147     C      0.710400000000     0.437200000000     0.368500000000     0          
C148     C      0.807400000000     0.428800000000     0.308800000000     0          
C149     C      0.772400000000     0.408800000000     0.383400000000     0          
H150     H      0.782700000000     0.395000000000     0.409800000000     0          
C151     C      0.815000000000     0.406500000000     0.349100000000     0          
H152     H      0.857700000000     0.385600000000     0.354100000000     0          
O153     O      0.408000000000     0.527900000000     0.390400000000     0          
O154     O      0.327600000000     0.560600000000     0.438600000000     0          
O155     O      0.418200000000     0.460900000000     0.463800000000     0          
C156     C      0.083600000000     0.524000000000     0.277800000000     0          
C157     C      0.303200000000     0.539200000000     0.329100000000     0          
H158     H      0.346400000000     0.519400000000     0.324100000000     0          
C159     C      0.348800000000     0.556600000000     0.398400000000     0          
C160     C      0.256700000000     0.543300000000     0.296600000000     0          
H161     H      0.266800000000     0.529300000000     0.270200000000     0          
C162     C      0.133600000000     0.577500000000     0.278600000000     0          
C163     C      0.088500000000     0.463200000000     0.306800000000     0          
H164     H      0.043500000000     0.442300000000     0.309800000000     0          
H165     H      0.104500000000     0.479100000000     0.332800000000     0          
H166     H      0.120400000000     0.429600000000     0.296200000000     0          
C167     C      0.289600000000     0.562800000000     0.368500000000     0          
C168     C      0.192600000000     0.571200000000     0.308800000000     0          
C169     C      0.227600000000     0.591200000000     0.383400000000     0          
H170     H      0.217300000000     0.605000000000     0.409800000000     0          
C171     C      0.185000000000     0.593500000000     0.349100000000     0          
H172     H      0.142300000000     0.614400000000     0.354100000000     0          
O173     O      0.027900000000     0.908000000000     0.890400000000     0          
O174     O      0.060600000000     0.827600000000     0.938600000000     0          
O175     O      0.960900000000     0.918200000000     0.963800000000     0          
C176     C      0.024000000000     0.583600000000     0.777800000000     0          
C177     C      0.039200000000     0.803200000000     0.829100000000     0          
H178     H      0.019400000000     0.846400000000     0.824100000000     0          
C179     C      0.056600000000     0.848800000000     0.898400000000     0          
C180     C      0.043300000000     0.756700000000     0.796600000000     0          
H181     H      0.029300000000     0.766800000000     0.770200000000     0          
C182     C      0.077500000000     0.633600000000     0.778600000000     0          
C183     C      0.963200000000     0.588500000000     0.806800000000     0          
H184     H      0.942300000000     0.543500000000     0.809800000000     0          
H185     H      0.979100000000     0.604500000000     0.832800000000     0          
H186     H      0.929600000000     0.620400000000     0.796200000000     0          
C187     C      0.062800000000     0.789600000000     0.868500000000     0          
C188     C      0.071200000000     0.692600000000     0.808800000000     0          
C189     C      0.091200000000     0.727600000000     0.883400000000     0          
H190     H      0.105000000000     0.717300000000     0.909800000000     0          
C191     C      0.093500000000     0.685000000000     0.849100000000     0          
H192     H      0.114400000000     0.642300000000     0.854100000000     0          
O193     O      0.972100000000     0.092000000000     0.890400000000     0          
O194     O      0.939400000000     0.172400000000     0.938600000000     0          
O195     O      0.039100000000     0.081800000000     0.963800000000     0          
C196     C      0.976000000000     0.416400000000     0.777800000000     0          
C197     C      0.960800000000     0.196800000000     0.829100000000     0          
H198     H      0.980600000000     0.153600000000     0.824100000000     0          
C199     C      0.943400000000     0.151200000000     0.898400000000     0          
C200     C      0.956700000000     0.243300000000     0.796600000000     0          
H201     H      0.970700000000     0.233200000000     0.770200000000     0          
C202     C      0.922500000000     0.366400000000     0.778600000000     0          
C203     C      0.036800000000     0.411500000000     0.806800000000     0          
H204     H      0.057700000000     0.456500000000     0.809800000000     0          
H205     H      0.020900000000     0.395500000000     0.832800000000     0          
H206     H      0.070400000000     0.379600000000     0.796200000000     0          
C207     C      0.937200000000     0.210400000000     0.868500000000     0          
C208     C      0.928800000000     0.307400000000     0.808800000000     0          
C209     C      0.908800000000     0.272400000000     0.883400000000     0          
H210     H      0.895000000000     0.282700000000     0.909800000000     0          
C211     C      0.906500000000     0.315000000000     0.849100000000     0          
H212     H      0.885600000000     0.357700000000     0.854100000000     0          
H213     H      0.822100000000     0.280100000000     0.771300000000     0          
H214     H      0.812900000000     0.289300000000     0.724300000000     0          
H215     H      0.768300000000     0.333900000000     0.754400000000     0          
O216     O      0.092000000000     0.027900000000     0.890400000000     0          
O217     O      0.172400000000     0.060600000000     0.938600000000     0          
O218     O      0.081800000000     0.960900000000     0.963800000000     0          
C219     C      0.416400000000     0.024000000000     0.777800000000     0          
C220     C      0.196800000000     0.039200000000     0.829100000000     0          
H221     H      0.153600000000     0.019400000000     0.824100000000     0          
C222     C      0.151200000000     0.056600000000     0.898400000000     0          
C223     C      0.243300000000     0.043300000000     0.796600000000     0          
H224     H      0.233200000000     0.029300000000     0.770200000000     0          
C225     C      0.366400000000     0.077500000000     0.778600000000     0          
C226     C      0.411500000000     0.963200000000     0.806800000000     0          
H227     H      0.456500000000     0.942300000000     0.809800000000     0          
H228     H      0.395500000000     0.979100000000     0.832800000000     0          
H229     H      0.379600000000     0.929600000000     0.796200000000     0          
C230     C      0.210400000000     0.062800000000     0.868500000000     0          
C231     C      0.307400000000     0.071200000000     0.808800000000     0          
C232     C      0.272400000000     0.091200000000     0.883400000000     0          
H233     H      0.282700000000     0.105000000000     0.909800000000     0          
C234     C      0.315000000000     0.093500000000     0.849100000000     0          
H235     H      0.357700000000     0.114400000000     0.854100000000     0          
H236     H      0.280100000000     0.177900000000     0.771300000000     0          
H237     H      0.289300000000     0.187100000000     0.724300000000     0          
H238     H      0.333900000000     0.231700000000     0.754400000000     0          
O239     O      0.908000000000     0.972100000000     0.890400000000     0          
O240     O      0.827600000000     0.939400000000     0.938600000000     0          
O241     O      0.918200000000     0.039100000000     0.963800000000     0          
C242     C      0.583600000000     0.976000000000     0.777800000000     0          
C243     C      0.803200000000     0.960800000000     0.829100000000     0          
H244     H      0.846400000000     0.980600000000     0.824100000000     0          
C245     C      0.848800000000     0.943400000000     0.898400000000     0          
C246     C      0.756700000000     0.956700000000     0.796600000000     0          
H247     H      0.766800000000     0.970700000000     0.770200000000     0          
C248     C      0.633600000000     0.922500000000     0.778600000000     0          
C249     C      0.588500000000     0.036800000000     0.806800000000     0          
H250     H      0.543500000000     0.057700000000     0.809800000000     0          
H251     H      0.604500000000     0.020900000000     0.832800000000     0          
H252     H      0.620400000000     0.070400000000     0.796200000000     0          
C253     C      0.789600000000     0.937200000000     0.868500000000     0          
C254     C      0.692600000000     0.928800000000     0.808800000000     0          
C255     C      0.727600000000     0.908800000000     0.883400000000     0          
H256     H      0.717300000000     0.895000000000     0.909800000000     0          
C257     C      0.685000000000     0.906500000000     0.849100000000     0          
H258     H      0.642300000000     0.885600000000     0.854100000000     0          
H259     H      0.719900000000     0.822100000000     0.771300000000     0          
H260     H      0.710700000000     0.812900000000     0.724300000000     0          
H261     H      0.666100000000     0.768300000000     0.754400000000     0          
O262     O      0.472100000000     0.408000000000     0.609600000000     0          
O263     O      0.439400000000     0.327600000000     0.561400000000     0          
O264     O      0.539100000000     0.418200000000     0.536200000000     0          
C265     C      0.476000000000     0.083600000000     0.722200000000     0          
C266     C      0.460800000000     0.303200000000     0.670900000000     0          
H267     H      0.480600000000     0.346400000000     0.675900000000     0          
C268     C      0.443400000000     0.348800000000     0.601600000000     0          
C269     C      0.456700000000     0.256700000000     0.703400000000     0          
H270     H      0.470700000000     0.266800000000     0.729800000000     0          
C271     C      0.422500000000     0.133600000000     0.721400000000     0          
C272     C      0.536800000000     0.088500000000     0.693200000000     0          
H273     H      0.557700000000     0.043500000000     0.690200000000     0          
H274     H      0.520900000000     0.104500000000     0.667200000000     0          
H275     H      0.570400000000     0.120400000000     0.703800000000     0          
C276     C      0.437200000000     0.289600000000     0.631500000000     0          
C277     C      0.428800000000     0.192600000000     0.691200000000     0          
C278     C      0.408800000000     0.227600000000     0.616600000000     0          
H279     H      0.395000000000     0.217300000000     0.590200000000     0          
C280     C      0.406500000000     0.185000000000     0.650900000000     0          
H281     H      0.385600000000     0.142300000000     0.645900000000     0          
O282     O      0.527900000000     0.592000000000     0.609600000000     0          
O283     O      0.560600000000     0.672400000000     0.561400000000     0          
O284     O      0.460900000000     0.581800000000     0.536200000000     0          
C285     C      0.524000000000     0.916400000000     0.722200000000     0          
C286     C      0.539200000000     0.696800000000     0.670900000000     0          
H287     H      0.519400000000     0.653600000000     0.675900000000     0          
C288     C      0.556600000000     0.651200000000     0.601600000000     0          
C289     C      0.543300000000     0.743300000000     0.703400000000     0          
H290     H      0.529300000000     0.733200000000     0.729800000000     0          
C291     C      0.577500000000     0.866400000000     0.721400000000     0          
C292     C      0.463200000000     0.911500000000     0.693200000000     0          
H293     H      0.442300000000     0.956500000000     0.690200000000     0          
H294     H      0.479100000000     0.895500000000     0.667200000000     0          
H295     H      0.429600000000     0.879600000000     0.703800000000     0          
C296     C      0.562800000000     0.710400000000     0.631500000000     0          
C297     C      0.571200000000     0.807400000000     0.691200000000     0          
C298     C      0.591200000000     0.772400000000     0.616600000000     0          
H299     H      0.605000000000     0.782700000000     0.590200000000     0          
C300     C      0.593500000000     0.815000000000     0.650900000000     0          
H301     H      0.614400000000     0.857700000000     0.645900000000     0          
O302     O      0.408000000000     0.527900000000     0.609600000000     0          
O303     O      0.327600000000     0.560600000000     0.561400000000     0          
O304     O      0.418200000000     0.460900000000     0.536200000000     0          
C305     C      0.083600000000     0.524000000000     0.722200000000     0          
C306     C      0.303200000000     0.539200000000     0.670900000000     0          
H307     H      0.346400000000     0.519400000000     0.675900000000     0          
C308     C      0.348800000000     0.556600000000     0.601600000000     0          
C309     C      0.256700000000     0.543300000000     0.703400000000     0          
H310     H      0.266800000000     0.529300000000     0.729800000000     0          
C311     C      0.133600000000     0.577500000000     0.721400000000     0          
C312     C      0.088500000000     0.463200000000     0.693200000000     0          
H313     H      0.043500000000     0.442300000000     0.690200000000     0          
H314     H      0.104500000000     0.479100000000     0.667200000000     0          
H315     H      0.120400000000     0.429600000000     0.703800000000     0          
C316     C      0.289600000000     0.562800000000     0.631500000000     0          
C317     C      0.192600000000     0.571200000000     0.691200000000     0          
C318     C      0.227600000000     0.591200000000     0.616600000000     0          
H319     H      0.217300000000     0.605000000000     0.590200000000     0          
C320     C      0.185000000000     0.593500000000     0.650900000000     0          
H321     H      0.142300000000     0.614400000000     0.645900000000     0          
H322     H      0.219900000000     0.677900000000     0.728700000000     0          
H323     H      0.210700000000     0.687100000000     0.775700000000     0          
H324     H      0.166100000000     0.731700000000     0.745600000000     0          
O325     O      0.592000000000     0.472100000000     0.609600000000     0          
O326     O      0.672400000000     0.439400000000     0.561400000000     0          
O327     O      0.581800000000     0.539100000000     0.536200000000     0          
C328     C      0.916400000000     0.476000000000     0.722200000000     0          
C329     C      0.696800000000     0.460800000000     0.670900000000     0          
H330     H      0.653600000000     0.480600000000     0.675900000000     0          
C331     C      0.651200000000     0.443400000000     0.601600000000     0          
C332     C      0.743300000000     0.456700000000     0.703400000000     0          
H333     H      0.733200000000     0.470700000000     0.729800000000     0          
C334     C      0.866400000000     0.422500000000     0.721400000000     0          
C335     C      0.911500000000     0.536800000000     0.693200000000     0          
H336     H      0.956500000000     0.557700000000     0.690200000000     0          
H337     H      0.895500000000     0.520900000000     0.667200000000     0          
H338     H      0.879600000000     0.570400000000     0.703800000000     0          
C339     C      0.710400000000     0.437200000000     0.631500000000     0          
C340     C      0.807400000000     0.428800000000     0.691200000000     0          
C341     C      0.772400000000     0.408800000000     0.616600000000     0          
H342     H      0.782700000000     0.395000000000     0.590200000000     0          
C343     C      0.815000000000     0.406500000000     0.650900000000     0          
H344     H      0.857700000000     0.385600000000     0.645900000000     0          
Zr345    Zr     0.122870000000     0.042350000000     0.000000000000     0          
Zr346    Zr     0.877130000000     0.957650000000     0.000000000000     0          
Zr347    Zr     0.957650000000     0.122870000000     0.000000000000     0          
Zr348    Zr     0.042350000000     0.877130000000     0.000000000000     0          
Zr349    Zr     0.377130000000     0.542350000000     0.500000000000     0          
Zr350    Zr     0.622870000000     0.457650000000     0.500000000000     0          
Zr351    Zr     0.542350000000     0.622870000000     0.500000000000     0          
Zr352    Zr     0.457650000000     0.377130000000     0.500000000000     0          
Zr353    Zr     0.000000000000     0.000000000000     0.074500000000     0          
Zr354    Zr     0.500000000000     0.500000000000     0.425500000000     0          
Zr355    Zr     0.000000000000     0.000000000000     0.925500000000     0          
Zr356    Zr     0.500000000000     0.500000000000     0.574500000000     0          
C357     C      0.972300000000     0.472300000000     0.250000000000     0          
C358     C      0.868100000000     0.368100000000     0.250000000000     0          
C359     C      0.812800000000     0.312800000000     0.250000000000     0          
C360     C      0.027700000000     0.527700000000     0.250000000000     0          
C361     C      0.131900000000     0.631900000000     0.250000000000     0          
C362     C      0.187200000000     0.687200000000     0.250000000000     0          
C363     C      0.527700000000     0.972300000000     0.250000000000     0          
C364     C      0.631900000000     0.868100000000     0.250000000000     0          
C365     C      0.687200000000     0.812800000000     0.250000000000     0          
C366     C      0.472300000000     0.027700000000     0.250000000000     0          
C367     C      0.368100000000     0.131900000000     0.250000000000     0          
C368     C      0.312800000000     0.187200000000     0.250000000000     0          
C369     C      0.027700000000     0.527700000000     0.750000000000     0          
C370     C      0.131900000000     0.631900000000     0.750000000000     0          
C371     C      0.187200000000     0.687200000000     0.750000000000     0          
C372     C      0.972300000000     0.472300000000     0.750000000000     0          
C373     C      0.868100000000     0.368100000000     0.750000000000     0          
C374     C      0.812800000000     0.312800000000     0.750000000000     0          
C375     C      0.472300000000     0.027700000000     0.750000000000     0          
C376     C      0.368100000000     0.131900000000     0.750000000000     0          
C377     C      0.312800000000     0.187200000000     0.750000000000     0          
C378     C      0.527700000000     0.972300000000     0.750000000000     0          
C379     C      0.631900000000     0.868100000000     0.750000000000     0          
C380     C      0.687200000000     0.812800000000     0.750000000000     0          


