data_NEVSUF06

_audit_creation_method RASPA-1.0
_audit_creation_date 2020-11-2
_audit_author_name 'Rocio Bueno-Perez'

_cell_length_a    19.1734
_cell_length_b    19.1734
_cell_length_c    33.032
_cell_angle_alpha 90
_cell_angle_beta  90
_cell_angle_gamma 90
_cell_volume      12143.2

_symmetry_cell_setting          triclinic
_symmetry_space_group_name_Hall 'P 1'
_symmetry_space_group_name_H-M  'P 1'
_symmetry_Int_Tables_number     1

_symmetry_equiv_pos_as_xyz 'x,y,z'

loop_
_atom_site_label
_atom_site_type_symbol
_atom_site_fract_x
_atom_site_fract_y
_atom_site_fract_z
_atom_site_charge
O1       O      0.971400000000     0.092500000000     0.109600000000     0          
O2       O      0.938000000000     0.172300000000     0.060800000000     0          
O3       O      0.040000000000     0.082500000000     0.036100000000     0          
C4       C      0.975300000000     0.415200000000     0.222600000000     0          
C5       C      0.957200000000     0.197800000000     0.171100000000     0          
H6       H      0.975300000000     0.153200000000     0.174900000000     0          
C7       C      0.942600000000     0.152200000000     0.101300000000     0          
C8       C      0.955800000000     0.238800000000     0.205900000000     0          
H9       H      0.969400000000     0.226400000000     0.231900000000     0          
C10      C      0.923000000000     0.364000000000     0.221900000000     0          
C11      C      0.036000000000     0.411300000000     0.193300000000     0          
H12      H      0.060400000000     0.455000000000     0.193100000000     0          
H13      H      0.018900000000     0.401500000000     0.166500000000     0          
H14      H      0.067200000000     0.374800000000     0.201500000000     0          
C15      C      0.936000000000     0.212000000000     0.131000000000     0          
C16      C      0.929200000000     0.303400000000     0.192700000000     0          
C17      C      0.909000000000     0.274500000000     0.115700000000     0          
H18      H      0.895700000000     0.287100000000     0.089600000000     0          
C19      C      0.908400000000     0.312400000000     0.152300000000     0          
H20      H      0.888300000000     0.356100000000     0.148600000000     0          
H21      H      0.822300000000     0.278700000000     0.229200000000     0          
H22      H      0.811500000000     0.289500000000     0.275900000000     0          
H23      H      0.767700000000     0.333300000000     0.244900000000     0          
O24      O      0.028600000000     0.907500000000     0.109600000000     0          
O25      O      0.062000000000     0.827700000000     0.060800000000     0          
O26      O      0.960000000000     0.917500000000     0.036100000000     0          
C27      C      0.024700000000     0.584800000000     0.222600000000     0          
C28      C      0.042800000000     0.802200000000     0.171100000000     0          
H29      H      0.024700000000     0.846800000000     0.174900000000     0          
C30      C      0.057400000000     0.847800000000     0.101300000000     0          
C31      C      0.044200000000     0.761200000000     0.205900000000     0          
H32      H      0.030600000000     0.773600000000     0.231900000000     0          
C33      C      0.077000000000     0.636000000000     0.221900000000     0          
C34      C      0.964000000000     0.588700000000     0.193300000000     0          
H35      H      0.939600000000     0.545000000000     0.193100000000     0          
H36      H      0.981100000000     0.598500000000     0.166500000000     0          
H37      H      0.932800000000     0.625200000000     0.201500000000     0          
C38      C      0.064000000000     0.788000000000     0.131000000000     0          
C39      C      0.070800000000     0.696600000000     0.192700000000     0          
C40      C      0.091000000000     0.725500000000     0.115700000000     0          
H41      H      0.104300000000     0.712900000000     0.089600000000     0          
C42      C      0.091600000000     0.687600000000     0.152300000000     0          
H43      H      0.111700000000     0.643900000000     0.148600000000     0          
H44      H      0.177700000000     0.721300000000     0.229200000000     0          
H45      H      0.188500000000     0.710500000000     0.275900000000     0          
H46      H      0.232300000000     0.666700000000     0.244900000000     0          
O47      O      0.907500000000     0.971400000000     0.109600000000     0          
O48      O      0.827700000000     0.938000000000     0.060800000000     0          
O49      O      0.917500000000     0.040000000000     0.036100000000     0          
C50      C      0.584800000000     0.975300000000     0.222600000000     0          
C51      C      0.802200000000     0.957200000000     0.171100000000     0          
H52      H      0.846800000000     0.975300000000     0.174900000000     0          
C53      C      0.847800000000     0.942600000000     0.101300000000     0          
C54      C      0.761200000000     0.955800000000     0.205900000000     0          
H55      H      0.773600000000     0.969400000000     0.231900000000     0          
C56      C      0.636000000000     0.923000000000     0.221900000000     0          
C57      C      0.588700000000     0.036000000000     0.193300000000     0          
H58      H      0.545000000000     0.060400000000     0.193100000000     0          
H59      H      0.598500000000     0.018900000000     0.166500000000     0          
H60      H      0.625200000000     0.067200000000     0.201500000000     0          
C61      C      0.788000000000     0.936000000000     0.131000000000     0          
C62      C      0.696600000000     0.929200000000     0.192700000000     0          
C63      C      0.725500000000     0.909000000000     0.115700000000     0          
H64      H      0.712900000000     0.895700000000     0.089600000000     0          
C65      C      0.687600000000     0.908400000000     0.152300000000     0          
H66      H      0.643900000000     0.888300000000     0.148600000000     0          
O67      O      0.092500000000     0.028600000000     0.109600000000     0          
O68      O      0.172300000000     0.062000000000     0.060800000000     0          
O69      O      0.082500000000     0.960000000000     0.036100000000     0          
C70      C      0.415200000000     0.024700000000     0.222600000000     0          
C71      C      0.197800000000     0.042800000000     0.171100000000     0          
H72      H      0.153200000000     0.024700000000     0.174900000000     0          
C73      C      0.152200000000     0.057400000000     0.101300000000     0          
C74      C      0.238800000000     0.044200000000     0.205900000000     0          
H75      H      0.226400000000     0.030600000000     0.231900000000     0          
C76      C      0.364000000000     0.077000000000     0.221900000000     0          
C77      C      0.411300000000     0.964000000000     0.193300000000     0          
H78      H      0.455000000000     0.939600000000     0.193100000000     0          
H79      H      0.401500000000     0.981100000000     0.166500000000     0          
H80      H      0.374800000000     0.932800000000     0.201500000000     0          
C81      C      0.212000000000     0.064000000000     0.131000000000     0          
C82      C      0.303400000000     0.070800000000     0.192700000000     0          
C83      C      0.274500000000     0.091000000000     0.115700000000     0          
H84      H      0.287100000000     0.104300000000     0.089600000000     0          
C85      C      0.312400000000     0.091600000000     0.152300000000     0          
H86      H      0.356100000000     0.111700000000     0.148600000000     0          
H87      H      0.278700000000     0.177700000000     0.229200000000     0          
H88      H      0.289500000000     0.188500000000     0.275900000000     0          
H89      H      0.333300000000     0.232300000000     0.244900000000     0          
O90      O      0.528600000000     0.592500000000     0.390400000000     0          
O91      O      0.562000000000     0.672300000000     0.439200000000     0          
O92      O      0.460000000000     0.582500000000     0.463900000000     0          
C93      C      0.524700000000     0.915200000000     0.277400000000     0          
C94      C      0.542800000000     0.697800000000     0.328900000000     0          
H95      H      0.524700000000     0.653200000000     0.325100000000     0          
C96      C      0.557400000000     0.652200000000     0.398700000000     0          
C97      C      0.544200000000     0.738800000000     0.294100000000     0          
H98      H      0.530600000000     0.726400000000     0.268100000000     0          
C99      C      0.577000000000     0.864000000000     0.278100000000     0          
C100     C      0.464000000000     0.911300000000     0.306700000000     0          
H101     H      0.439600000000     0.955000000000     0.306900000000     0          
H102     H      0.481100000000     0.901500000000     0.333500000000     0          
H103     H      0.432800000000     0.874800000000     0.298500000000     0          
C104     C      0.564000000000     0.712000000000     0.369000000000     0          
C105     C      0.570800000000     0.803400000000     0.307300000000     0          
C106     C      0.591000000000     0.774500000000     0.384300000000     0          
H107     H      0.604300000000     0.787100000000     0.410400000000     0          
C108     C      0.591600000000     0.812400000000     0.347700000000     0          
H109     H      0.611700000000     0.856100000000     0.351400000000     0          
H110     H      0.677700000000     0.778700000000     0.270800000000     0          
H111     H      0.688500000000     0.789500000000     0.224100000000     0          
H112     H      0.732300000000     0.833300000000     0.255100000000     0          
O113     O      0.471400000000     0.407500000000     0.390400000000     0          
O114     O      0.438000000000     0.327700000000     0.439200000000     0          
O115     O      0.540000000000     0.417500000000     0.463900000000     0          
C116     C      0.475300000000     0.084800000000     0.277400000000     0          
C117     C      0.457200000000     0.302200000000     0.328900000000     0          
H118     H      0.475300000000     0.346800000000     0.325100000000     0          
C119     C      0.442600000000     0.347800000000     0.398700000000     0          
C120     C      0.455800000000     0.261200000000     0.294100000000     0          
H121     H      0.469400000000     0.273600000000     0.268100000000     0          
C122     C      0.423000000000     0.136000000000     0.278100000000     0          
C123     C      0.536000000000     0.088700000000     0.306700000000     0          
H124     H      0.560400000000     0.045000000000     0.306900000000     0          
H125     H      0.518900000000     0.098500000000     0.333500000000     0          
H126     H      0.567200000000     0.125200000000     0.298500000000     0          
C127     C      0.436000000000     0.288000000000     0.369000000000     0          
C128     C      0.429200000000     0.196600000000     0.307300000000     0          
C129     C      0.409000000000     0.225500000000     0.384300000000     0          
H130     H      0.395700000000     0.212900000000     0.410400000000     0          
C131     C      0.408400000000     0.187600000000     0.347700000000     0          
H132     H      0.388300000000     0.143900000000     0.351400000000     0          
O133     O      0.592500000000     0.471400000000     0.390400000000     0          
O134     O      0.672300000000     0.438000000000     0.439200000000     0          
O135     O      0.582500000000     0.540000000000     0.463900000000     0          
C136     C      0.915200000000     0.475300000000     0.277400000000     0          
C137     C      0.697800000000     0.457200000000     0.328900000000     0          
H138     H      0.653200000000     0.475300000000     0.325100000000     0          
C139     C      0.652200000000     0.442600000000     0.398700000000     0          
C140     C      0.738800000000     0.455800000000     0.294100000000     0          
H141     H      0.726400000000     0.469400000000     0.268100000000     0          
C142     C      0.864000000000     0.423000000000     0.278100000000     0          
C143     C      0.911300000000     0.536000000000     0.306700000000     0          
H144     H      0.955000000000     0.560400000000     0.306900000000     0          
H145     H      0.901500000000     0.518900000000     0.333500000000     0          
H146     H      0.874800000000     0.567200000000     0.298500000000     0          
C147     C      0.712000000000     0.436000000000     0.369000000000     0          
C148     C      0.803400000000     0.429200000000     0.307300000000     0          
C149     C      0.774500000000     0.409000000000     0.384300000000     0          
H150     H      0.787100000000     0.395700000000     0.410400000000     0          
C151     C      0.812400000000     0.408400000000     0.347700000000     0          
H152     H      0.856100000000     0.388300000000     0.351400000000     0          
O153     O      0.407500000000     0.528600000000     0.390400000000     0          
O154     O      0.327700000000     0.562000000000     0.439200000000     0          
O155     O      0.417500000000     0.460000000000     0.463900000000     0          
C156     C      0.084800000000     0.524700000000     0.277400000000     0          
C157     C      0.302200000000     0.542800000000     0.328900000000     0          
H158     H      0.346800000000     0.524700000000     0.325100000000     0          
C159     C      0.347800000000     0.557400000000     0.398700000000     0          
C160     C      0.261200000000     0.544200000000     0.294100000000     0          
H161     H      0.273600000000     0.530600000000     0.268100000000     0          
C162     C      0.136000000000     0.577000000000     0.278100000000     0          
C163     C      0.088700000000     0.464000000000     0.306700000000     0          
H164     H      0.045000000000     0.439600000000     0.306900000000     0          
H165     H      0.098500000000     0.481100000000     0.333500000000     0          
H166     H      0.125200000000     0.432800000000     0.298500000000     0          
C167     C      0.288000000000     0.564000000000     0.369000000000     0          
C168     C      0.196600000000     0.570800000000     0.307300000000     0          
C169     C      0.225500000000     0.591000000000     0.384300000000     0          
H170     H      0.212900000000     0.604300000000     0.410400000000     0          
C171     C      0.187600000000     0.591600000000     0.347700000000     0          
H172     H      0.143900000000     0.611700000000     0.351400000000     0          
O173     O      0.028600000000     0.907500000000     0.890400000000     0          
O174     O      0.062000000000     0.827700000000     0.939200000000     0          
O175     O      0.960000000000     0.917500000000     0.963900000000     0          
C176     C      0.024700000000     0.584800000000     0.777400000000     0          
C177     C      0.042800000000     0.802200000000     0.828900000000     0          
H178     H      0.024700000000     0.846800000000     0.825100000000     0          
C179     C      0.057400000000     0.847800000000     0.898700000000     0          
C180     C      0.044200000000     0.761200000000     0.794100000000     0          
H181     H      0.030600000000     0.773600000000     0.768100000000     0          
C182     C      0.077000000000     0.636000000000     0.778100000000     0          
C183     C      0.964000000000     0.588700000000     0.806700000000     0          
H184     H      0.939600000000     0.545000000000     0.806900000000     0          
H185     H      0.981100000000     0.598500000000     0.833500000000     0          
H186     H      0.932800000000     0.625200000000     0.798500000000     0          
C187     C      0.064000000000     0.788000000000     0.869000000000     0          
C188     C      0.070800000000     0.696600000000     0.807300000000     0          
C189     C      0.091000000000     0.725500000000     0.884300000000     0          
H190     H      0.104300000000     0.712900000000     0.910400000000     0          
C191     C      0.091600000000     0.687600000000     0.847700000000     0          
H192     H      0.111700000000     0.643900000000     0.851400000000     0          
O193     O      0.971400000000     0.092500000000     0.890400000000     0          
O194     O      0.938000000000     0.172300000000     0.939200000000     0          
O195     O      0.040000000000     0.082500000000     0.963900000000     0          
C196     C      0.975300000000     0.415200000000     0.777400000000     0          
C197     C      0.957200000000     0.197800000000     0.828900000000     0          
H198     H      0.975300000000     0.153200000000     0.825100000000     0          
C199     C      0.942600000000     0.152200000000     0.898700000000     0          
C200     C      0.955800000000     0.238800000000     0.794100000000     0          
H201     H      0.969400000000     0.226400000000     0.768100000000     0          
C202     C      0.923000000000     0.364000000000     0.778100000000     0          
C203     C      0.036000000000     0.411300000000     0.806700000000     0          
H204     H      0.060400000000     0.455000000000     0.806900000000     0          
H205     H      0.018900000000     0.401500000000     0.833500000000     0          
H206     H      0.067200000000     0.374800000000     0.798500000000     0          
C207     C      0.936000000000     0.212000000000     0.869000000000     0          
C208     C      0.929200000000     0.303400000000     0.807300000000     0          
C209     C      0.909000000000     0.274500000000     0.884300000000     0          
H210     H      0.895700000000     0.287100000000     0.910400000000     0          
C211     C      0.908400000000     0.312400000000     0.847700000000     0          
H212     H      0.888300000000     0.356100000000     0.851400000000     0          
H213     H      0.822300000000     0.278700000000     0.770800000000     0          
H214     H      0.811500000000     0.289500000000     0.724100000000     0          
H215     H      0.767700000000     0.333300000000     0.755100000000     0          
O216     O      0.092500000000     0.028600000000     0.890400000000     0          
O217     O      0.172300000000     0.062000000000     0.939200000000     0          
O218     O      0.082500000000     0.960000000000     0.963900000000     0          
C219     C      0.415200000000     0.024700000000     0.777400000000     0          
C220     C      0.197800000000     0.042800000000     0.828900000000     0          
H221     H      0.153200000000     0.024700000000     0.825100000000     0          
C222     C      0.152200000000     0.057400000000     0.898700000000     0          
C223     C      0.238800000000     0.044200000000     0.794100000000     0          
H224     H      0.226400000000     0.030600000000     0.768100000000     0          
C225     C      0.364000000000     0.077000000000     0.778100000000     0          
C226     C      0.411300000000     0.964000000000     0.806700000000     0          
H227     H      0.455000000000     0.939600000000     0.806900000000     0          
H228     H      0.401500000000     0.981100000000     0.833500000000     0          
H229     H      0.374800000000     0.932800000000     0.798500000000     0          
C230     C      0.212000000000     0.064000000000     0.869000000000     0          
C231     C      0.303400000000     0.070800000000     0.807300000000     0          
C232     C      0.274500000000     0.091000000000     0.884300000000     0          
H233     H      0.287100000000     0.104300000000     0.910400000000     0          
C234     C      0.312400000000     0.091600000000     0.847700000000     0          
H235     H      0.356100000000     0.111700000000     0.851400000000     0          
H236     H      0.278700000000     0.177700000000     0.770800000000     0          
H237     H      0.289500000000     0.188500000000     0.724100000000     0          
H238     H      0.333300000000     0.232300000000     0.755100000000     0          
O239     O      0.907500000000     0.971400000000     0.890400000000     0          
O240     O      0.827700000000     0.938000000000     0.939200000000     0          
O241     O      0.917500000000     0.040000000000     0.963900000000     0          
C242     C      0.584800000000     0.975300000000     0.777400000000     0          
C243     C      0.802200000000     0.957200000000     0.828900000000     0          
H244     H      0.846800000000     0.975300000000     0.825100000000     0          
C245     C      0.847800000000     0.942600000000     0.898700000000     0          
C246     C      0.761200000000     0.955800000000     0.794100000000     0          
H247     H      0.773600000000     0.969400000000     0.768100000000     0          
C248     C      0.636000000000     0.923000000000     0.778100000000     0          
C249     C      0.588700000000     0.036000000000     0.806700000000     0          
H250     H      0.545000000000     0.060400000000     0.806900000000     0          
H251     H      0.598500000000     0.018900000000     0.833500000000     0          
H252     H      0.625200000000     0.067200000000     0.798500000000     0          
C253     C      0.788000000000     0.936000000000     0.869000000000     0          
C254     C      0.696600000000     0.929200000000     0.807300000000     0          
C255     C      0.725500000000     0.909000000000     0.884300000000     0          
H256     H      0.712900000000     0.895700000000     0.910400000000     0          
C257     C      0.687600000000     0.908400000000     0.847700000000     0          
H258     H      0.643900000000     0.888300000000     0.851400000000     0          
O259     O      0.471400000000     0.407500000000     0.609600000000     0          
O260     O      0.438000000000     0.327700000000     0.560800000000     0          
O261     O      0.540000000000     0.417500000000     0.536100000000     0          
C262     C      0.475300000000     0.084800000000     0.722600000000     0          
C263     C      0.457200000000     0.302200000000     0.671100000000     0          
H264     H      0.475300000000     0.346800000000     0.674900000000     0          
C265     C      0.442600000000     0.347800000000     0.601300000000     0          
C266     C      0.455800000000     0.261200000000     0.705900000000     0          
H267     H      0.469400000000     0.273600000000     0.731900000000     0          
C268     C      0.423000000000     0.136000000000     0.721900000000     0          
C269     C      0.536000000000     0.088700000000     0.693300000000     0          
H270     H      0.560400000000     0.045000000000     0.693100000000     0          
H271     H      0.518900000000     0.098500000000     0.666500000000     0          
H272     H      0.567200000000     0.125200000000     0.701500000000     0          
C273     C      0.436000000000     0.288000000000     0.631000000000     0          
C274     C      0.429200000000     0.196600000000     0.692700000000     0          
C275     C      0.409000000000     0.225500000000     0.615700000000     0          
H276     H      0.395700000000     0.212900000000     0.589600000000     0          
C277     C      0.408400000000     0.187600000000     0.652300000000     0          
H278     H      0.388300000000     0.143900000000     0.648600000000     0          
O279     O      0.528600000000     0.592500000000     0.609600000000     0          
O280     O      0.562000000000     0.672300000000     0.560800000000     0          
O281     O      0.460000000000     0.582500000000     0.536100000000     0          
C282     C      0.524700000000     0.915200000000     0.722600000000     0          
C283     C      0.542800000000     0.697800000000     0.671100000000     0          
H284     H      0.524700000000     0.653200000000     0.674900000000     0          
C285     C      0.557400000000     0.652200000000     0.601300000000     0          
C286     C      0.544200000000     0.738800000000     0.705900000000     0          
H287     H      0.530600000000     0.726400000000     0.731900000000     0          
C288     C      0.577000000000     0.864000000000     0.721900000000     0          
C289     C      0.464000000000     0.911300000000     0.693300000000     0          
H290     H      0.439600000000     0.955000000000     0.693100000000     0          
H291     H      0.481100000000     0.901500000000     0.666500000000     0          
H292     H      0.432800000000     0.874800000000     0.701500000000     0          
C293     C      0.564000000000     0.712000000000     0.631000000000     0          
C294     C      0.570800000000     0.803400000000     0.692700000000     0          
C295     C      0.591000000000     0.774500000000     0.615700000000     0          
H296     H      0.604300000000     0.787100000000     0.589600000000     0          
C297     C      0.591600000000     0.812400000000     0.652300000000     0          
H298     H      0.611700000000     0.856100000000     0.648600000000     0          
H299     H      0.677700000000     0.778700000000     0.729200000000     0          
H300     H      0.688500000000     0.789500000000     0.775900000000     0          
H301     H      0.732300000000     0.833300000000     0.744900000000     0          
O302     O      0.407500000000     0.528600000000     0.609600000000     0          
O303     O      0.327700000000     0.562000000000     0.560800000000     0          
O304     O      0.417500000000     0.460000000000     0.536100000000     0          
C305     C      0.084800000000     0.524700000000     0.722600000000     0          
C306     C      0.302200000000     0.542800000000     0.671100000000     0          
H307     H      0.346800000000     0.524700000000     0.674900000000     0          
C308     C      0.347800000000     0.557400000000     0.601300000000     0          
C309     C      0.261200000000     0.544200000000     0.705900000000     0          
H310     H      0.273600000000     0.530600000000     0.731900000000     0          
C311     C      0.136000000000     0.577000000000     0.721900000000     0          
C312     C      0.088700000000     0.464000000000     0.693300000000     0          
H313     H      0.045000000000     0.439600000000     0.693100000000     0          
H314     H      0.098500000000     0.481100000000     0.666500000000     0          
H315     H      0.125200000000     0.432800000000     0.701500000000     0          
C316     C      0.288000000000     0.564000000000     0.631000000000     0          
C317     C      0.196600000000     0.570800000000     0.692700000000     0          
C318     C      0.225500000000     0.591000000000     0.615700000000     0          
H319     H      0.212900000000     0.604300000000     0.589600000000     0          
C320     C      0.187600000000     0.591600000000     0.652300000000     0          
H321     H      0.143900000000     0.611700000000     0.648600000000     0          
H322     H      0.221300000000     0.677700000000     0.729200000000     0          
H323     H      0.210500000000     0.688500000000     0.775900000000     0          
H324     H      0.166700000000     0.732300000000     0.744900000000     0          
O325     O      0.592500000000     0.471400000000     0.609600000000     0          
O326     O      0.672300000000     0.438000000000     0.560800000000     0          
O327     O      0.582500000000     0.540000000000     0.536100000000     0          
C328     C      0.915200000000     0.475300000000     0.722600000000     0          
C329     C      0.697800000000     0.457200000000     0.671100000000     0          
H330     H      0.653200000000     0.475300000000     0.674900000000     0          
C331     C      0.652200000000     0.442600000000     0.601300000000     0          
C332     C      0.738800000000     0.455800000000     0.705900000000     0          
H333     H      0.726400000000     0.469400000000     0.731900000000     0          
C334     C      0.864000000000     0.423000000000     0.721900000000     0          
C335     C      0.911300000000     0.536000000000     0.693300000000     0          
H336     H      0.955000000000     0.560400000000     0.693100000000     0          
H337     H      0.901500000000     0.518900000000     0.666500000000     0          
H338     H      0.874800000000     0.567200000000     0.701500000000     0          
C339     C      0.712000000000     0.436000000000     0.631000000000     0          
C340     C      0.803400000000     0.429200000000     0.692700000000     0          
C341     C      0.774500000000     0.409000000000     0.615700000000     0          
H342     H      0.787100000000     0.395700000000     0.589600000000     0          
C343     C      0.812400000000     0.408400000000     0.652300000000     0          
H344     H      0.856100000000     0.388300000000     0.648600000000     0          
Zr345    Zr     0.123160000000     0.043360000000     0.000000000000     0          
Zr346    Zr     0.876840000000     0.956640000000     0.000000000000     0          
Zr347    Zr     0.956640000000     0.123160000000     0.000000000000     0          
Zr348    Zr     0.043360000000     0.876840000000     0.000000000000     0          
Zr349    Zr     0.376840000000     0.543360000000     0.500000000000     0          
Zr350    Zr     0.623160000000     0.456640000000     0.500000000000     0          
Zr351    Zr     0.543360000000     0.623160000000     0.500000000000     0          
Zr352    Zr     0.456640000000     0.376840000000     0.500000000000     0          
Zr353    Zr     0.000000000000     0.000000000000     0.073820000000     0          
Zr354    Zr     0.500000000000     0.500000000000     0.426180000000     0          
Zr355    Zr     0.000000000000     0.000000000000     0.926180000000     0          
Zr356    Zr     0.500000000000     0.500000000000     0.573820000000     0          
C357     C      0.971500000000     0.471500000000     0.250000000000     0          
C358     C      0.867600000000     0.367600000000     0.250000000000     0          
C359     C      0.812300000000     0.312300000000     0.250000000000     0          
C360     C      0.028500000000     0.528500000000     0.250000000000     0          
C361     C      0.132400000000     0.632400000000     0.250000000000     0          
C362     C      0.187700000000     0.687700000000     0.250000000000     0          
C363     C      0.528500000000     0.971500000000     0.250000000000     0          
C364     C      0.632400000000     0.867600000000     0.250000000000     0          
C365     C      0.687700000000     0.812300000000     0.250000000000     0          
C366     C      0.471500000000     0.028500000000     0.250000000000     0          
C367     C      0.367600000000     0.132400000000     0.250000000000     0          
C368     C      0.312300000000     0.187700000000     0.250000000000     0          
C369     C      0.028500000000     0.528500000000     0.750000000000     0          
C370     C      0.132400000000     0.632400000000     0.750000000000     0          
C371     C      0.187700000000     0.687700000000     0.750000000000     0          
C372     C      0.971500000000     0.471500000000     0.750000000000     0          
C373     C      0.867600000000     0.367600000000     0.750000000000     0          
C374     C      0.812300000000     0.312300000000     0.750000000000     0          
C375     C      0.471500000000     0.028500000000     0.750000000000     0          
C376     C      0.367600000000     0.132400000000     0.750000000000     0          
C377     C      0.312300000000     0.187700000000     0.750000000000     0          
C378     C      0.528500000000     0.971500000000     0.750000000000     0          
C379     C      0.632400000000     0.867600000000     0.750000000000     0          
C380     C      0.687700000000     0.812300000000     0.750000000000     0          


