data_NEVSUF05

_audit_creation_method RASPA-1.0
_audit_creation_date 2020-11-2
_audit_author_name 'Rocio Bueno-Perez'

_cell_length_a    19.3348
_cell_length_b    19.3348
_cell_length_c    32.768
_cell_angle_alpha 90
_cell_angle_beta  90
_cell_angle_gamma 90
_cell_volume      12249.8

_symmetry_cell_setting          triclinic
_symmetry_space_group_name_Hall 'P 1'
_symmetry_space_group_name_H-M  'P 1'
_symmetry_Int_Tables_number     1

_symmetry_equiv_pos_as_xyz 'x,y,z'

loop_
_atom_site_label
_atom_site_type_symbol
_atom_site_fract_x
_atom_site_fract_y
_atom_site_fract_z
_atom_site_charge
O1       O      0.973700000000     0.092700000000     0.110900000000     0          
O2       O      0.935300000000     0.170300000000     0.062400000000     0          
O3       O      0.038700000000     0.084500000000     0.036000000000     0          
C4       C      0.975500000000     0.416400000000     0.222600000000     0          
C5       C      0.955400000000     0.190400000000     0.171900000000     0          
H6       H      0.970500000000     0.146700000000     0.179800000000     0          
C7       C      0.942500000000     0.145200000000     0.102000000000     0          
C8       C      0.950600000000     0.244300000000     0.199800000000     0          
H9       H      0.966300000000     0.236700000000     0.226300000000     0          
C10      C      0.921900000000     0.367400000000     0.221500000000     0          
C11      C      0.037700000000     0.411900000000     0.193800000000     0          
H12      H      0.022000000000     0.401000000000     0.166800000000     0          
H13      H      0.068500000000     0.376300000000     0.203200000000     0          
H14      H      0.061500000000     0.455400000000     0.193500000000     0          
C15      C      0.936600000000     0.204600000000     0.131700000000     0          
C16      C      0.923400000000     0.309300000000     0.190300000000     0          
C17      C      0.913600000000     0.270600000000     0.121800000000     0          
H18      H      0.901500000000     0.279400000000     0.094800000000     0          
C19      C      0.907500000000     0.324300000000     0.149900000000     0          
H20      H      0.893500000000     0.368300000000     0.142000000000     0          
H21      H      0.822800000000     0.281600000000     0.228400000000     0          
H22      H      0.814300000000     0.290100000000     0.275700000000     0          
H23      H      0.769500000000     0.334900000000     0.245900000000     0          
O24      O      0.026300000000     0.907300000000     0.110900000000     0          
O25      O      0.064700000000     0.829700000000     0.062400000000     0          
O26      O      0.961300000000     0.915500000000     0.036000000000     0          
C27      C      0.024500000000     0.583600000000     0.222600000000     0          
C28      C      0.044600000000     0.809600000000     0.171900000000     0          
H29      H      0.029500000000     0.853300000000     0.179800000000     0          
C30      C      0.057500000000     0.854800000000     0.102000000000     0          
C31      C      0.049400000000     0.755700000000     0.199800000000     0          
H32      H      0.033700000000     0.763300000000     0.226300000000     0          
C33      C      0.078100000000     0.632600000000     0.221500000000     0          
C34      C      0.962300000000     0.588100000000     0.193800000000     0          
H35      H      0.978000000000     0.599000000000     0.166800000000     0          
H36      H      0.931500000000     0.623700000000     0.203200000000     0          
H37      H      0.938500000000     0.544600000000     0.193500000000     0          
C38      C      0.063400000000     0.795400000000     0.131700000000     0          
C39      C      0.076600000000     0.690700000000     0.190300000000     0          
C40      C      0.086400000000     0.729400000000     0.121800000000     0          
H41      H      0.098500000000     0.720600000000     0.094800000000     0          
C42      C      0.092500000000     0.675700000000     0.149900000000     0          
H43      H      0.106500000000     0.631700000000     0.142000000000     0          
O44      O      0.907300000000     0.973700000000     0.110900000000     0          
O45      O      0.829700000000     0.935300000000     0.062400000000     0          
O46      O      0.915500000000     0.038700000000     0.036000000000     0          
C47      C      0.583600000000     0.975500000000     0.222600000000     0          
C48      C      0.809600000000     0.955400000000     0.171900000000     0          
H49      H      0.853300000000     0.970500000000     0.179800000000     0          
C50      C      0.854800000000     0.942500000000     0.102000000000     0          
C51      C      0.755700000000     0.950600000000     0.199800000000     0          
H52      H      0.763300000000     0.966300000000     0.226300000000     0          
C53      C      0.632600000000     0.921900000000     0.221500000000     0          
C54      C      0.588100000000     0.037700000000     0.193800000000     0          
H55      H      0.599000000000     0.022000000000     0.166800000000     0          
H56      H      0.623700000000     0.068500000000     0.203200000000     0          
H57      H      0.544600000000     0.061500000000     0.193500000000     0          
C58      C      0.795400000000     0.936600000000     0.131700000000     0          
C59      C      0.690700000000     0.923400000000     0.190300000000     0          
C60      C      0.729400000000     0.913600000000     0.121800000000     0          
H61      H      0.720600000000     0.901500000000     0.094800000000     0          
C62      C      0.675700000000     0.907500000000     0.149900000000     0          
H63      H      0.631700000000     0.893500000000     0.142000000000     0          
H64      H      0.718400000000     0.822800000000     0.228400000000     0          
H65      H      0.709900000000     0.814300000000     0.275700000000     0          
H66      H      0.665100000000     0.769500000000     0.245900000000     0          
O67      O      0.092700000000     0.026300000000     0.110900000000     0          
O68      O      0.170300000000     0.064700000000     0.062400000000     0          
O69      O      0.084500000000     0.961300000000     0.036000000000     0          
C70      C      0.416400000000     0.024500000000     0.222600000000     0          
C71      C      0.190400000000     0.044600000000     0.171900000000     0          
H72      H      0.146700000000     0.029500000000     0.179800000000     0          
C73      C      0.145200000000     0.057500000000     0.102000000000     0          
C74      C      0.244300000000     0.049400000000     0.199800000000     0          
H75      H      0.236700000000     0.033700000000     0.226300000000     0          
C76      C      0.367400000000     0.078100000000     0.221500000000     0          
C77      C      0.411900000000     0.962300000000     0.193800000000     0          
H78      H      0.401000000000     0.978000000000     0.166800000000     0          
H79      H      0.376300000000     0.931500000000     0.203200000000     0          
H80      H      0.455400000000     0.938500000000     0.193500000000     0          
C81      C      0.204600000000     0.063400000000     0.131700000000     0          
C82      C      0.309300000000     0.076600000000     0.190300000000     0          
C83      C      0.270600000000     0.086400000000     0.121800000000     0          
H84      H      0.279400000000     0.098500000000     0.094800000000     0          
C85      C      0.324300000000     0.092500000000     0.149900000000     0          
H86      H      0.368300000000     0.106500000000     0.142000000000     0          
O87      O      0.526300000000     0.592700000000     0.389100000000     0          
O88      O      0.564700000000     0.670300000000     0.437600000000     0          
O89      O      0.461300000000     0.584500000000     0.464000000000     0          
C90      C      0.524500000000     0.916400000000     0.277400000000     0          
C91      C      0.544600000000     0.690400000000     0.328100000000     0          
H92      H      0.529500000000     0.646700000000     0.320200000000     0          
C93      C      0.557500000000     0.645200000000     0.398000000000     0          
C94      C      0.549400000000     0.744300000000     0.300200000000     0          
H95      H      0.533700000000     0.736700000000     0.273700000000     0          
C96      C      0.578100000000     0.867400000000     0.278500000000     0          
C97      C      0.462300000000     0.911900000000     0.306200000000     0          
H98      H      0.478000000000     0.901000000000     0.333200000000     0          
H99      H      0.431500000000     0.876300000000     0.296800000000     0          
H100     H      0.438500000000     0.955400000000     0.306500000000     0          
C101     C      0.563400000000     0.704600000000     0.368300000000     0          
C102     C      0.576600000000     0.809300000000     0.309700000000     0          
C103     C      0.586400000000     0.770600000000     0.378200000000     0          
H104     H      0.598500000000     0.779400000000     0.405200000000     0          
C105     C      0.592500000000     0.824300000000     0.350100000000     0          
H106     H      0.606500000000     0.868300000000     0.358000000000     0          
O107     O      0.473700000000     0.407300000000     0.389100000000     0          
O108     O      0.435300000000     0.329700000000     0.437600000000     0          
O109     O      0.538700000000     0.415500000000     0.464000000000     0          
C110     C      0.475500000000     0.083600000000     0.277400000000     0          
C111     C      0.455400000000     0.309600000000     0.328100000000     0          
H112     H      0.470500000000     0.353300000000     0.320200000000     0          
C113     C      0.442500000000     0.354800000000     0.398000000000     0          
C114     C      0.450600000000     0.255700000000     0.300200000000     0          
H115     H      0.466300000000     0.263300000000     0.273700000000     0          
C116     C      0.421900000000     0.132600000000     0.278500000000     0          
C117     C      0.537700000000     0.088100000000     0.306200000000     0          
H118     H      0.522000000000     0.099000000000     0.333200000000     0          
H119     H      0.568500000000     0.123700000000     0.296800000000     0          
H120     H      0.561500000000     0.044600000000     0.306500000000     0          
C121     C      0.436600000000     0.295400000000     0.368300000000     0          
C122     C      0.423400000000     0.190700000000     0.309700000000     0          
C123     C      0.413600000000     0.229400000000     0.378200000000     0          
H124     H      0.401500000000     0.220600000000     0.405200000000     0          
C125     C      0.407500000000     0.175700000000     0.350100000000     0          
H126     H      0.393500000000     0.131700000000     0.358000000000     0          
H127     H      0.322800000000     0.218400000000     0.271600000000     0          
H128     H      0.314300000000     0.209900000000     0.224300000000     0          
H129     H      0.269500000000     0.165100000000     0.254100000000     0          
O130     O      0.592700000000     0.473700000000     0.389100000000     0          
O131     O      0.670300000000     0.435300000000     0.437600000000     0          
O132     O      0.584500000000     0.538700000000     0.464000000000     0          
C133     C      0.916400000000     0.475500000000     0.277400000000     0          
C134     C      0.690400000000     0.455400000000     0.328100000000     0          
H135     H      0.646700000000     0.470500000000     0.320200000000     0          
C136     C      0.645200000000     0.442500000000     0.398000000000     0          
C137     C      0.744300000000     0.450600000000     0.300200000000     0          
H138     H      0.736700000000     0.466300000000     0.273700000000     0          
C139     C      0.867400000000     0.421900000000     0.278500000000     0          
C140     C      0.911900000000     0.537700000000     0.306200000000     0          
H141     H      0.901000000000     0.522000000000     0.333200000000     0          
H142     H      0.876300000000     0.568500000000     0.296800000000     0          
H143     H      0.955400000000     0.561500000000     0.306500000000     0          
C144     C      0.704600000000     0.436600000000     0.368300000000     0          
C145     C      0.809300000000     0.423400000000     0.309700000000     0          
C146     C      0.770600000000     0.413600000000     0.378200000000     0          
H147     H      0.779400000000     0.401500000000     0.405200000000     0          
C148     C      0.824300000000     0.407500000000     0.350100000000     0          
H149     H      0.868300000000     0.393500000000     0.358000000000     0          
O150     O      0.407300000000     0.526300000000     0.389100000000     0          
O151     O      0.329700000000     0.564700000000     0.437600000000     0          
O152     O      0.415500000000     0.461300000000     0.464000000000     0          
C153     C      0.083600000000     0.524500000000     0.277400000000     0          
C154     C      0.309600000000     0.544600000000     0.328100000000     0          
H155     H      0.353300000000     0.529500000000     0.320200000000     0          
C156     C      0.354800000000     0.557500000000     0.398000000000     0          
C157     C      0.255700000000     0.549400000000     0.300200000000     0          
H158     H      0.263300000000     0.533700000000     0.273700000000     0          
C159     C      0.132600000000     0.578100000000     0.278500000000     0          
C160     C      0.088100000000     0.462300000000     0.306200000000     0          
H161     H      0.099000000000     0.478000000000     0.333200000000     0          
H162     H      0.123700000000     0.431500000000     0.296800000000     0          
H163     H      0.044600000000     0.438500000000     0.306500000000     0          
C164     C      0.295400000000     0.563400000000     0.368300000000     0          
C165     C      0.190700000000     0.576600000000     0.309700000000     0          
C166     C      0.229400000000     0.586400000000     0.378200000000     0          
H167     H      0.220600000000     0.598500000000     0.405200000000     0          
C168     C      0.175700000000     0.592500000000     0.350100000000     0          
H169     H      0.131700000000     0.606500000000     0.358000000000     0          
H170     H      0.218400000000     0.677200000000     0.271600000000     0          
H171     H      0.209900000000     0.685700000000     0.224300000000     0          
H172     H      0.165100000000     0.730500000000     0.254100000000     0          
O173     O      0.026300000000     0.907300000000     0.889100000000     0          
O174     O      0.064700000000     0.829700000000     0.937600000000     0          
O175     O      0.961300000000     0.915500000000     0.964000000000     0          
C176     C      0.024500000000     0.583600000000     0.777400000000     0          
C177     C      0.044600000000     0.809600000000     0.828100000000     0          
H178     H      0.029500000000     0.853300000000     0.820200000000     0          
C179     C      0.057500000000     0.854800000000     0.898000000000     0          
C180     C      0.049400000000     0.755700000000     0.800200000000     0          
H181     H      0.033700000000     0.763300000000     0.773700000000     0          
C182     C      0.078100000000     0.632600000000     0.778500000000     0          
C183     C      0.962300000000     0.588100000000     0.806200000000     0          
H184     H      0.978000000000     0.599000000000     0.833200000000     0          
H185     H      0.931500000000     0.623700000000     0.796800000000     0          
H186     H      0.938500000000     0.544600000000     0.806500000000     0          
C187     C      0.063400000000     0.795400000000     0.868300000000     0          
C188     C      0.076600000000     0.690700000000     0.809700000000     0          
C189     C      0.086400000000     0.729400000000     0.878200000000     0          
H190     H      0.098500000000     0.720600000000     0.905200000000     0          
C191     C      0.092500000000     0.675700000000     0.850100000000     0          
H192     H      0.106500000000     0.631700000000     0.858000000000     0          
H193     H      0.177200000000     0.718400000000     0.771600000000     0          
H194     H      0.185700000000     0.709900000000     0.724300000000     0          
H195     H      0.230500000000     0.665100000000     0.754100000000     0          
O196     O      0.973700000000     0.092700000000     0.889100000000     0          
O197     O      0.935300000000     0.170300000000     0.937600000000     0          
O198     O      0.038700000000     0.084500000000     0.964000000000     0          
C199     C      0.975500000000     0.416400000000     0.777400000000     0          
C200     C      0.955400000000     0.190400000000     0.828100000000     0          
H201     H      0.970500000000     0.146700000000     0.820200000000     0          
C202     C      0.942500000000     0.145200000000     0.898000000000     0          
C203     C      0.950600000000     0.244300000000     0.800200000000     0          
H204     H      0.966300000000     0.236700000000     0.773700000000     0          
C205     C      0.921900000000     0.367400000000     0.778500000000     0          
C206     C      0.037700000000     0.411900000000     0.806200000000     0          
H207     H      0.022000000000     0.401000000000     0.833200000000     0          
H208     H      0.068500000000     0.376300000000     0.796800000000     0          
H209     H      0.061500000000     0.455400000000     0.806500000000     0          
C210     C      0.936600000000     0.204600000000     0.868300000000     0          
C211     C      0.923400000000     0.309300000000     0.809700000000     0          
C212     C      0.913600000000     0.270600000000     0.878200000000     0          
H213     H      0.901500000000     0.279400000000     0.905200000000     0          
C214     C      0.907500000000     0.324300000000     0.850100000000     0          
H215     H      0.893500000000     0.368300000000     0.858000000000     0          
O216     O      0.092700000000     0.026300000000     0.889100000000     0          
O217     O      0.170300000000     0.064700000000     0.937600000000     0          
O218     O      0.084500000000     0.961300000000     0.964000000000     0          
C219     C      0.416400000000     0.024500000000     0.777400000000     0          
C220     C      0.190400000000     0.044600000000     0.828100000000     0          
H221     H      0.146700000000     0.029500000000     0.820200000000     0          
C222     C      0.145200000000     0.057500000000     0.898000000000     0          
C223     C      0.244300000000     0.049400000000     0.800200000000     0          
H224     H      0.236700000000     0.033700000000     0.773700000000     0          
C225     C      0.367400000000     0.078100000000     0.778500000000     0          
C226     C      0.411900000000     0.962300000000     0.806200000000     0          
H227     H      0.401000000000     0.978000000000     0.833200000000     0          
H228     H      0.376300000000     0.931500000000     0.796800000000     0          
H229     H      0.455400000000     0.938500000000     0.806500000000     0          
C230     C      0.204600000000     0.063400000000     0.868300000000     0          
C231     C      0.309300000000     0.076600000000     0.809700000000     0          
C232     C      0.270600000000     0.086400000000     0.878200000000     0          
H233     H      0.279400000000     0.098500000000     0.905200000000     0          
C234     C      0.324300000000     0.092500000000     0.850100000000     0          
H235     H      0.368300000000     0.106500000000     0.858000000000     0          
H236     H      0.281600000000     0.177200000000     0.771600000000     0          
H237     H      0.290100000000     0.185700000000     0.724300000000     0          
H238     H      0.334900000000     0.230500000000     0.754100000000     0          
O239     O      0.907300000000     0.973700000000     0.889100000000     0          
O240     O      0.829700000000     0.935300000000     0.937600000000     0          
O241     O      0.915500000000     0.038700000000     0.964000000000     0          
C242     C      0.583600000000     0.975500000000     0.777400000000     0          
C243     C      0.809600000000     0.955400000000     0.828100000000     0          
H244     H      0.853300000000     0.970500000000     0.820200000000     0          
C245     C      0.854800000000     0.942500000000     0.898000000000     0          
C246     C      0.755700000000     0.950600000000     0.800200000000     0          
H247     H      0.763300000000     0.966300000000     0.773700000000     0          
C248     C      0.632600000000     0.921900000000     0.778500000000     0          
C249     C      0.588100000000     0.037700000000     0.806200000000     0          
H250     H      0.599000000000     0.022000000000     0.833200000000     0          
H251     H      0.623700000000     0.068500000000     0.796800000000     0          
H252     H      0.544600000000     0.061500000000     0.806500000000     0          
C253     C      0.795400000000     0.936600000000     0.868300000000     0          
C254     C      0.690700000000     0.923400000000     0.809700000000     0          
C255     C      0.729400000000     0.913600000000     0.878200000000     0          
H256     H      0.720600000000     0.901500000000     0.905200000000     0          
C257     C      0.675700000000     0.907500000000     0.850100000000     0          
H258     H      0.631700000000     0.893500000000     0.858000000000     0          
O259     O      0.473700000000     0.407300000000     0.610900000000     0          
O260     O      0.435300000000     0.329700000000     0.562400000000     0          
O261     O      0.538700000000     0.415500000000     0.536000000000     0          
C262     C      0.475500000000     0.083600000000     0.722600000000     0          
C263     C      0.455400000000     0.309600000000     0.671900000000     0          
H264     H      0.470500000000     0.353300000000     0.679800000000     0          
C265     C      0.442500000000     0.354800000000     0.602000000000     0          
C266     C      0.450600000000     0.255700000000     0.699800000000     0          
H267     H      0.466300000000     0.263300000000     0.726300000000     0          
C268     C      0.421900000000     0.132600000000     0.721500000000     0          
C269     C      0.537700000000     0.088100000000     0.693800000000     0          
H270     H      0.522000000000     0.099000000000     0.666800000000     0          
H271     H      0.568500000000     0.123700000000     0.703200000000     0          
H272     H      0.561500000000     0.044600000000     0.693500000000     0          
C273     C      0.436600000000     0.295400000000     0.631700000000     0          
C274     C      0.423400000000     0.190700000000     0.690300000000     0          
C275     C      0.413600000000     0.229400000000     0.621800000000     0          
H276     H      0.401500000000     0.220600000000     0.594800000000     0          
C277     C      0.407500000000     0.175700000000     0.649900000000     0          
H278     H      0.393500000000     0.131700000000     0.642000000000     0          
O279     O      0.526300000000     0.592700000000     0.610900000000     0          
O280     O      0.564700000000     0.670300000000     0.562400000000     0          
O281     O      0.461300000000     0.584500000000     0.536000000000     0          
C282     C      0.524500000000     0.916400000000     0.722600000000     0          
C283     C      0.544600000000     0.690400000000     0.671900000000     0          
H284     H      0.529500000000     0.646700000000     0.679800000000     0          
C285     C      0.557500000000     0.645200000000     0.602000000000     0          
C286     C      0.549400000000     0.744300000000     0.699800000000     0          
H287     H      0.533700000000     0.736700000000     0.726300000000     0          
C288     C      0.578100000000     0.867400000000     0.721500000000     0          
C289     C      0.462300000000     0.911900000000     0.693800000000     0          
H290     H      0.478000000000     0.901000000000     0.666800000000     0          
H291     H      0.431500000000     0.876300000000     0.703200000000     0          
H292     H      0.438500000000     0.955400000000     0.693500000000     0          
C293     C      0.563400000000     0.704600000000     0.631700000000     0          
C294     C      0.576600000000     0.809300000000     0.690300000000     0          
C295     C      0.586400000000     0.770600000000     0.621800000000     0          
H296     H      0.598500000000     0.779400000000     0.594800000000     0          
C297     C      0.592500000000     0.824300000000     0.649900000000     0          
H298     H      0.606500000000     0.868300000000     0.642000000000     0          
H299     H      0.677200000000     0.781600000000     0.728400000000     0          
H300     H      0.685700000000     0.790100000000     0.775700000000     0          
H301     H      0.730500000000     0.834900000000     0.745900000000     0          
O302     O      0.407300000000     0.526300000000     0.610900000000     0          
O303     O      0.329700000000     0.564700000000     0.562400000000     0          
O304     O      0.415500000000     0.461300000000     0.536000000000     0          
C305     C      0.083600000000     0.524500000000     0.722600000000     0          
C306     C      0.309600000000     0.544600000000     0.671900000000     0          
H307     H      0.353300000000     0.529500000000     0.679800000000     0          
C308     C      0.354800000000     0.557500000000     0.602000000000     0          
C309     C      0.255700000000     0.549400000000     0.699800000000     0          
H310     H      0.263300000000     0.533700000000     0.726300000000     0          
C311     C      0.132600000000     0.578100000000     0.721500000000     0          
C312     C      0.088100000000     0.462300000000     0.693800000000     0          
H313     H      0.099000000000     0.478000000000     0.666800000000     0          
H314     H      0.123700000000     0.431500000000     0.703200000000     0          
H315     H      0.044600000000     0.438500000000     0.693500000000     0          
C316     C      0.295400000000     0.563400000000     0.631700000000     0          
C317     C      0.190700000000     0.576600000000     0.690300000000     0          
C318     C      0.229400000000     0.586400000000     0.621800000000     0          
H319     H      0.220600000000     0.598500000000     0.594800000000     0          
C320     C      0.175700000000     0.592500000000     0.649900000000     0          
H321     H      0.131700000000     0.606500000000     0.642000000000     0          
O322     O      0.592700000000     0.473700000000     0.610900000000     0          
O323     O      0.670300000000     0.435300000000     0.562400000000     0          
O324     O      0.584500000000     0.538700000000     0.536000000000     0          
C325     C      0.916400000000     0.475500000000     0.722600000000     0          
C326     C      0.690400000000     0.455400000000     0.671900000000     0          
H327     H      0.646700000000     0.470500000000     0.679800000000     0          
C328     C      0.645200000000     0.442500000000     0.602000000000     0          
C329     C      0.744300000000     0.450600000000     0.699800000000     0          
H330     H      0.736700000000     0.466300000000     0.726300000000     0          
C331     C      0.867400000000     0.421900000000     0.721500000000     0          
C332     C      0.911900000000     0.537700000000     0.693800000000     0          
H333     H      0.901000000000     0.522000000000     0.666800000000     0          
H334     H      0.876300000000     0.568500000000     0.703200000000     0          
H335     H      0.955400000000     0.561500000000     0.693500000000     0          
C336     C      0.704600000000     0.436600000000     0.631700000000     0          
C337     C      0.809300000000     0.423400000000     0.690300000000     0          
C338     C      0.770600000000     0.413600000000     0.621800000000     0          
H339     H      0.779400000000     0.401500000000     0.594800000000     0          
C340     C      0.824300000000     0.407500000000     0.649900000000     0          
H341     H      0.868300000000     0.393500000000     0.642000000000     0          
H342     H      0.781600000000     0.322800000000     0.728400000000     0          
H343     H      0.790100000000     0.314300000000     0.775700000000     0          
H344     H      0.834900000000     0.269500000000     0.745900000000     0          
Zr345    Zr     0.121600000000     0.045900000000     0.000000000000     0          
Zr346    Zr     0.878400000000     0.954100000000     0.000000000000     0          
Zr347    Zr     0.954100000000     0.121600000000     0.000000000000     0          
Zr348    Zr     0.045900000000     0.878400000000     0.000000000000     0          
Zr349    Zr     0.378400000000     0.545900000000     0.500000000000     0          
Zr350    Zr     0.621600000000     0.454100000000     0.500000000000     0          
Zr351    Zr     0.545900000000     0.621600000000     0.500000000000     0          
Zr352    Zr     0.454100000000     0.378400000000     0.500000000000     0          
Zr353    Zr     0.000000000000     0.000000000000     0.074670000000     0          
Zr354    Zr     0.500000000000     0.500000000000     0.425330000000     0          
Zr355    Zr     0.000000000000     0.000000000000     0.925330000000     0          
Zr356    Zr     0.500000000000     0.500000000000     0.574670000000     0          
C357     C      0.972450000000     0.472450000000     0.250000000000     0          
C358     C      0.868200000000     0.368200000000     0.250000000000     0          
C359     C      0.813900000000     0.313900000000     0.250000000000     0          
C360     C      0.027550000000     0.527550000000     0.250000000000     0          
C361     C      0.131800000000     0.631800000000     0.250000000000     0          
C362     C      0.186100000000     0.686100000000     0.250000000000     0          
C363     C      0.527550000000     0.972450000000     0.250000000000     0          
C364     C      0.631800000000     0.868200000000     0.250000000000     0          
C365     C      0.686100000000     0.813900000000     0.250000000000     0          
C366     C      0.472450000000     0.027550000000     0.250000000000     0          
C367     C      0.368200000000     0.131800000000     0.250000000000     0          
C368     C      0.313900000000     0.186100000000     0.250000000000     0          
C369     C      0.027550000000     0.527550000000     0.750000000000     0          
C370     C      0.131800000000     0.631800000000     0.750000000000     0          
C371     C      0.186100000000     0.686100000000     0.750000000000     0          
C372     C      0.972450000000     0.472450000000     0.750000000000     0          
C373     C      0.868200000000     0.368200000000     0.750000000000     0          
C374     C      0.813900000000     0.313900000000     0.750000000000     0          
C375     C      0.472450000000     0.027550000000     0.750000000000     0          
C376     C      0.368200000000     0.131800000000     0.750000000000     0          
C377     C      0.313900000000     0.186100000000     0.750000000000     0          
C378     C      0.527550000000     0.972450000000     0.750000000000     0          
C379     C      0.631800000000     0.868200000000     0.750000000000     0          
C380     C      0.686100000000     0.813900000000     0.750000000000     0          


