data_NEVSUF04

_audit_creation_method RASPA-1.0
_audit_creation_date 2020-11-2
_audit_author_name 'Rocio Bueno-Perez'

_cell_length_a    19.4481
_cell_length_b    19.4481
_cell_length_c    32.575
_cell_angle_alpha 90
_cell_angle_beta  90
_cell_angle_gamma 90
_cell_volume      12320.8

_symmetry_cell_setting          triclinic
_symmetry_space_group_name_Hall 'P 1'
_symmetry_space_group_name_H-M  'P 1'
_symmetry_Int_Tables_number     1

_symmetry_equiv_pos_as_xyz 'x,y,z'

loop_
_atom_site_label
_atom_site_type_symbol
_atom_site_fract_x
_atom_site_fract_y
_atom_site_fract_z
_atom_site_charge
O1       O      0.409300000000     0.523500000000     0.387700000000     0          
O2       O      0.327800000000     0.562700000000     0.438300000000     0          
O3       O      0.415100000000     0.462900000000     0.462100000000     0          
C4       C      0.082300000000     0.521800000000     0.277500000000     0          
C5       C      0.305900000000     0.541300000000     0.327100000000     0          
H6       H      0.349600000000     0.526400000000     0.319600000000     0          
C7       C      0.352800000000     0.552900000000     0.398700000000     0          
C8       C      0.255000000000     0.545200000000     0.296600000000     0          
H9       H      0.264700000000     0.532600000000     0.269600000000     0          
C10      C      0.129400000000     0.576000000000     0.277500000000     0          
C11      C      0.087700000000     0.458900000000     0.307200000000     0          
H12      H      0.086700000000     0.474700000000     0.335100000000     0          
H13      H      0.130000000000     0.434900000000     0.302100000000     0          
H14      H      0.049700000000     0.428400000000     0.302500000000     0          
C15      C      0.294200000000     0.558600000000     0.368400000000     0          
C16      C      0.188800000000     0.568800000000     0.307600000000     0          
C17      C      0.229500000000     0.581100000000     0.381500000000     0          
H18      H      0.219100000000     0.591200000000     0.408700000000     0          
C19      C      0.181600000000     0.587000000000     0.349200000000     0          
H20      H      0.139200000000     0.605500000000     0.356400000000     0          
O21      O      0.590700000000     0.476500000000     0.387700000000     0          
O22      O      0.672200000000     0.437300000000     0.438300000000     0          
O23      O      0.584900000000     0.537100000000     0.462100000000     0          
C24      C      0.917700000000     0.478200000000     0.277500000000     0          
C25      C      0.694100000000     0.458700000000     0.327100000000     0          
H26      H      0.650400000000     0.473600000000     0.319600000000     0          
C27      C      0.647200000000     0.447100000000     0.398700000000     0          
C28      C      0.745000000000     0.454800000000     0.296600000000     0          
H29      H      0.735300000000     0.467400000000     0.269600000000     0          
C30      C      0.870600000000     0.424000000000     0.277500000000     0          
C31      C      0.912300000000     0.541100000000     0.307200000000     0          
H32      H      0.913300000000     0.525300000000     0.335100000000     0          
H33      H      0.870000000000     0.565100000000     0.302100000000     0          
H34      H      0.950300000000     0.571600000000     0.302500000000     0          
C35      C      0.705800000000     0.441400000000     0.368400000000     0          
C36      C      0.811200000000     0.431200000000     0.307600000000     0          
C37      C      0.770500000000     0.418900000000     0.381500000000     0          
H38      H      0.780900000000     0.408800000000     0.408700000000     0          
C39      C      0.818400000000     0.413000000000     0.349200000000     0          
H40      H      0.860800000000     0.394500000000     0.356400000000     0          
O41      O      0.476500000000     0.409300000000     0.387700000000     0          
O42      O      0.437300000000     0.327800000000     0.438300000000     0          
O43      O      0.537100000000     0.415100000000     0.462100000000     0          
C44      C      0.478200000000     0.082300000000     0.277500000000     0          
C45      C      0.458700000000     0.305900000000     0.327100000000     0          
H46      H      0.473600000000     0.349600000000     0.319600000000     0          
C47      C      0.447100000000     0.352800000000     0.398700000000     0          
C48      C      0.454800000000     0.255000000000     0.296600000000     0          
H49      H      0.467400000000     0.264700000000     0.269600000000     0          
C50      C      0.424000000000     0.129400000000     0.277500000000     0          
C51      C      0.541100000000     0.087700000000     0.307200000000     0          
H52      H      0.525300000000     0.086700000000     0.335100000000     0          
H53      H      0.565100000000     0.130000000000     0.302100000000     0          
H54      H      0.571600000000     0.049700000000     0.302500000000     0          
C55      C      0.441400000000     0.294200000000     0.368400000000     0          
C56      C      0.431200000000     0.188800000000     0.307600000000     0          
C57      C      0.418900000000     0.229500000000     0.381500000000     0          
H58      H      0.408800000000     0.219100000000     0.408700000000     0          
C59      C      0.413000000000     0.181600000000     0.349200000000     0          
H60      H      0.394500000000     0.139200000000     0.356400000000     0          
O61      O      0.523500000000     0.590700000000     0.387700000000     0          
O62      O      0.562700000000     0.672200000000     0.438300000000     0          
O63      O      0.462900000000     0.584900000000     0.462100000000     0          
C64      C      0.521800000000     0.917700000000     0.277500000000     0          
C65      C      0.541300000000     0.694100000000     0.327100000000     0          
H66      H      0.526400000000     0.650400000000     0.319600000000     0          
C67      C      0.552900000000     0.647200000000     0.398700000000     0          
C68      C      0.545200000000     0.745000000000     0.296600000000     0          
H69      H      0.532600000000     0.735300000000     0.269600000000     0          
C70      C      0.576000000000     0.870600000000     0.277500000000     0          
C71      C      0.458900000000     0.912300000000     0.307200000000     0          
H72      H      0.474700000000     0.913300000000     0.335100000000     0          
H73      H      0.434900000000     0.870000000000     0.302100000000     0          
H74      H      0.428400000000     0.950300000000     0.302500000000     0          
C75      C      0.558600000000     0.705800000000     0.368400000000     0          
C76      C      0.568800000000     0.811200000000     0.307600000000     0          
C77      C      0.581100000000     0.770500000000     0.381500000000     0          
H78      H      0.591200000000     0.780900000000     0.408700000000     0          
C79      C      0.587000000000     0.818400000000     0.349200000000     0          
H80      H      0.605500000000     0.860800000000     0.356400000000     0          
O81      O      0.090700000000     0.023500000000     0.112300000000     0          
O82      O      0.172200000000     0.062700000000     0.061700000000     0          
O83      O      0.084900000000     0.962900000000     0.037900000000     0          
C84      C      0.417700000000     0.021800000000     0.222500000000     0          
C85      C      0.194100000000     0.041300000000     0.172900000000     0          
H86      H      0.150400000000     0.026400000000     0.180400000000     0          
C87      C      0.147200000000     0.052900000000     0.101300000000     0          
C88      C      0.245000000000     0.045200000000     0.203400000000     0          
H89      H      0.235300000000     0.032600000000     0.230400000000     0          
C90      C      0.370600000000     0.076000000000     0.222500000000     0          
C91      C      0.412300000000     0.958900000000     0.192800000000     0          
H92      H      0.413300000000     0.974700000000     0.164900000000     0          
H93      H      0.370000000000     0.934900000000     0.197900000000     0          
H94      H      0.450300000000     0.928400000000     0.197500000000     0          
C95      C      0.205800000000     0.058600000000     0.131600000000     0          
C96      C      0.311200000000     0.068800000000     0.192400000000     0          
C97      C      0.270500000000     0.081100000000     0.118500000000     0          
H98      H      0.280900000000     0.091200000000     0.091300000000     0          
C99      C      0.318400000000     0.087000000000     0.150800000000     0          
H100     H      0.360800000000     0.105500000000     0.143600000000     0          
H101     H      0.281300000000     0.176900000000     0.228500000000     0          
H102     H      0.290600000000     0.186200000000     0.276000000000     0          
H103     H      0.334700000000     0.230300000000     0.245500000000     0          
O104     O      0.909300000000     0.976500000000     0.112300000000     0          
O105     O      0.827800000000     0.937300000000     0.061700000000     0          
O106     O      0.915100000000     0.037100000000     0.037900000000     0          
C107     C      0.582300000000     0.978200000000     0.222500000000     0          
C108     C      0.805900000000     0.958700000000     0.172900000000     0          
H109     H      0.849600000000     0.973600000000     0.180400000000     0          
C110     C      0.852800000000     0.947100000000     0.101300000000     0          
C111     C      0.755000000000     0.954800000000     0.203400000000     0          
H112     H      0.764700000000     0.967400000000     0.230400000000     0          
C113     C      0.629400000000     0.924000000000     0.222500000000     0          
C114     C      0.587700000000     0.041100000000     0.192800000000     0          
H115     H      0.586700000000     0.025300000000     0.164900000000     0          
H116     H      0.630000000000     0.065100000000     0.197900000000     0          
H117     H      0.549700000000     0.071600000000     0.197500000000     0          
C118     C      0.794200000000     0.941400000000     0.131600000000     0          
C119     C      0.688800000000     0.931200000000     0.192400000000     0          
C120     C      0.729500000000     0.918900000000     0.118500000000     0          
H121     H      0.719100000000     0.908800000000     0.091300000000     0          
C122     C      0.681600000000     0.913000000000     0.150800000000     0          
H123     H      0.639200000000     0.894500000000     0.143600000000     0          
H124     H      0.718700000000     0.823100000000     0.228500000000     0          
H125     H      0.709400000000     0.813800000000     0.276000000000     0          
H126     H      0.665300000000     0.769700000000     0.245500000000     0          
O127     O      0.023500000000     0.909300000000     0.112300000000     0          
O128     O      0.062700000000     0.827800000000     0.061700000000     0          
O129     O      0.962900000000     0.915100000000     0.037900000000     0          
C130     C      0.021800000000     0.582300000000     0.222500000000     0          
C131     C      0.041300000000     0.805900000000     0.172900000000     0          
H132     H      0.026400000000     0.849600000000     0.180400000000     0          
C133     C      0.052900000000     0.852800000000     0.101300000000     0          
C134     C      0.045200000000     0.755000000000     0.203400000000     0          
H135     H      0.032600000000     0.764700000000     0.230400000000     0          
C136     C      0.076000000000     0.629400000000     0.222500000000     0          
C137     C      0.958900000000     0.587700000000     0.192800000000     0          
H138     H      0.974700000000     0.586700000000     0.164900000000     0          
H139     H      0.934900000000     0.630000000000     0.197900000000     0          
H140     H      0.928400000000     0.549700000000     0.197500000000     0          
C141     C      0.058600000000     0.794200000000     0.131600000000     0          
C142     C      0.068800000000     0.688800000000     0.192400000000     0          
C143     C      0.081100000000     0.729500000000     0.118500000000     0          
H144     H      0.091200000000     0.719100000000     0.091300000000     0          
C145     C      0.087000000000     0.681600000000     0.150800000000     0          
H146     H      0.105500000000     0.639200000000     0.143600000000     0          
H147     H      0.176900000000     0.718700000000     0.228500000000     0          
H148     H      0.186200000000     0.709400000000     0.276000000000     0          
H149     H      0.230300000000     0.665300000000     0.245500000000     0          
O150     O      0.976500000000     0.090700000000     0.112300000000     0          
O151     O      0.937300000000     0.172200000000     0.061700000000     0          
O152     O      0.037100000000     0.084900000000     0.037900000000     0          
C153     C      0.978200000000     0.417700000000     0.222500000000     0          
C154     C      0.958700000000     0.194100000000     0.172900000000     0          
H155     H      0.973600000000     0.150400000000     0.180400000000     0          
C156     C      0.947100000000     0.147200000000     0.101300000000     0          
C157     C      0.954800000000     0.245000000000     0.203400000000     0          
H158     H      0.967400000000     0.235300000000     0.230400000000     0          
C159     C      0.924000000000     0.370600000000     0.222500000000     0          
C160     C      0.041100000000     0.412300000000     0.192800000000     0          
H161     H      0.025300000000     0.413300000000     0.164900000000     0          
H162     H      0.065100000000     0.370000000000     0.197900000000     0          
H163     H      0.071600000000     0.450300000000     0.197500000000     0          
C164     C      0.941400000000     0.205800000000     0.131600000000     0          
C165     C      0.931200000000     0.311200000000     0.192400000000     0          
C166     C      0.918900000000     0.270500000000     0.118500000000     0          
H167     H      0.908800000000     0.280900000000     0.091300000000     0          
C168     C      0.913000000000     0.318400000000     0.150800000000     0          
H169     H      0.894500000000     0.360800000000     0.143600000000     0          
H170     H      0.823100000000     0.281300000000     0.228500000000     0          
H171     H      0.813800000000     0.290600000000     0.276000000000     0          
H172     H      0.769700000000     0.334700000000     0.245500000000     0          
O173     O      0.590700000000     0.476500000000     0.612300000000     0          
O174     O      0.672200000000     0.437300000000     0.561700000000     0          
O175     O      0.584900000000     0.537100000000     0.537900000000     0          
C176     C      0.917700000000     0.478200000000     0.722500000000     0          
C177     C      0.694100000000     0.458700000000     0.672900000000     0          
H178     H      0.650400000000     0.473600000000     0.680400000000     0          
C179     C      0.647200000000     0.447100000000     0.601300000000     0          
C180     C      0.745000000000     0.454800000000     0.703400000000     0          
H181     H      0.735300000000     0.467400000000     0.730400000000     0          
C182     C      0.870600000000     0.424000000000     0.722500000000     0          
C183     C      0.912300000000     0.541100000000     0.692800000000     0          
H184     H      0.913300000000     0.525300000000     0.664900000000     0          
H185     H      0.870000000000     0.565100000000     0.697900000000     0          
H186     H      0.950300000000     0.571600000000     0.697500000000     0          
C187     C      0.705800000000     0.441400000000     0.631600000000     0          
C188     C      0.811200000000     0.431200000000     0.692400000000     0          
C189     C      0.770500000000     0.418900000000     0.618500000000     0          
H190     H      0.780900000000     0.408800000000     0.591300000000     0          
C191     C      0.818400000000     0.413000000000     0.650800000000     0          
H192     H      0.860800000000     0.394500000000     0.643600000000     0          
O193     O      0.409300000000     0.523500000000     0.612300000000     0          
O194     O      0.327800000000     0.562700000000     0.561700000000     0          
O195     O      0.415100000000     0.462900000000     0.537900000000     0          
C196     C      0.082300000000     0.521800000000     0.722500000000     0          
C197     C      0.305900000000     0.541300000000     0.672900000000     0          
H198     H      0.349600000000     0.526400000000     0.680400000000     0          
C199     C      0.352800000000     0.552900000000     0.601300000000     0          
C200     C      0.255000000000     0.545200000000     0.703400000000     0          
H201     H      0.264700000000     0.532600000000     0.730400000000     0          
C202     C      0.129400000000     0.576000000000     0.722500000000     0          
C203     C      0.087700000000     0.458900000000     0.692800000000     0          
H204     H      0.086700000000     0.474700000000     0.664900000000     0          
H205     H      0.130000000000     0.434900000000     0.697900000000     0          
H206     H      0.049700000000     0.428400000000     0.697500000000     0          
C207     C      0.294200000000     0.558600000000     0.631600000000     0          
C208     C      0.188800000000     0.568800000000     0.692400000000     0          
C209     C      0.229500000000     0.581100000000     0.618500000000     0          
H210     H      0.219100000000     0.591200000000     0.591300000000     0          
C211     C      0.181600000000     0.587000000000     0.650800000000     0          
H212     H      0.139200000000     0.605500000000     0.643600000000     0          
H213     H      0.218700000000     0.676900000000     0.728500000000     0          
H214     H      0.209400000000     0.686200000000     0.776000000000     0          
H215     H      0.165300000000     0.730300000000     0.745500000000     0          
O216     O      0.523500000000     0.590700000000     0.612300000000     0          
O217     O      0.562700000000     0.672200000000     0.561700000000     0          
O218     O      0.462900000000     0.584900000000     0.537900000000     0          
C219     C      0.521800000000     0.917700000000     0.722500000000     0          
C220     C      0.541300000000     0.694100000000     0.672900000000     0          
H221     H      0.526400000000     0.650400000000     0.680400000000     0          
C222     C      0.552900000000     0.647200000000     0.601300000000     0          
C223     C      0.545200000000     0.745000000000     0.703400000000     0          
H224     H      0.532600000000     0.735300000000     0.730400000000     0          
C225     C      0.576000000000     0.870600000000     0.722500000000     0          
C226     C      0.458900000000     0.912300000000     0.692800000000     0          
H227     H      0.474700000000     0.913300000000     0.664900000000     0          
H228     H      0.434900000000     0.870000000000     0.697900000000     0          
H229     H      0.428400000000     0.950300000000     0.697500000000     0          
C230     C      0.558600000000     0.705800000000     0.631600000000     0          
C231     C      0.568800000000     0.811200000000     0.692400000000     0          
C232     C      0.581100000000     0.770500000000     0.618500000000     0          
H233     H      0.591200000000     0.780900000000     0.591300000000     0          
C234     C      0.587000000000     0.818400000000     0.650800000000     0          
H235     H      0.605500000000     0.860800000000     0.643600000000     0          
H236     H      0.676900000000     0.781300000000     0.728500000000     0          
H237     H      0.686200000000     0.790600000000     0.776000000000     0          
H238     H      0.730300000000     0.834700000000     0.745500000000     0          
O239     O      0.476500000000     0.409300000000     0.612300000000     0          
O240     O      0.437300000000     0.327800000000     0.561700000000     0          
O241     O      0.537100000000     0.415100000000     0.537900000000     0          
C242     C      0.478200000000     0.082300000000     0.722500000000     0          
C243     C      0.458700000000     0.305900000000     0.672900000000     0          
H244     H      0.473600000000     0.349600000000     0.680400000000     0          
C245     C      0.447100000000     0.352800000000     0.601300000000     0          
C246     C      0.454800000000     0.255000000000     0.703400000000     0          
H247     H      0.467400000000     0.264700000000     0.730400000000     0          
C248     C      0.424000000000     0.129400000000     0.722500000000     0          
C249     C      0.541100000000     0.087700000000     0.692800000000     0          
H250     H      0.525300000000     0.086700000000     0.664900000000     0          
H251     H      0.565100000000     0.130000000000     0.697900000000     0          
H252     H      0.571600000000     0.049700000000     0.697500000000     0          
C253     C      0.441400000000     0.294200000000     0.631600000000     0          
C254     C      0.431200000000     0.188800000000     0.692400000000     0          
C255     C      0.418900000000     0.229500000000     0.618500000000     0          
H256     H      0.408800000000     0.219100000000     0.591300000000     0          
C257     C      0.413000000000     0.181600000000     0.650800000000     0          
H258     H      0.394500000000     0.139200000000     0.643600000000     0          
H259     H      0.323100000000     0.218700000000     0.728500000000     0          
H260     H      0.313800000000     0.209400000000     0.776000000000     0          
H261     H      0.269700000000     0.165300000000     0.745500000000     0          
O262     O      0.909300000000     0.976500000000     0.887700000000     0          
O263     O      0.827800000000     0.937300000000     0.938300000000     0          
O264     O      0.915100000000     0.037100000000     0.962100000000     0          
C265     C      0.582300000000     0.978200000000     0.777500000000     0          
C266     C      0.805900000000     0.958700000000     0.827100000000     0          
H267     H      0.849600000000     0.973600000000     0.819600000000     0          
C268     C      0.852800000000     0.947100000000     0.898700000000     0          
C269     C      0.755000000000     0.954800000000     0.796600000000     0          
H270     H      0.764700000000     0.967400000000     0.769600000000     0          
C271     C      0.629400000000     0.924000000000     0.777500000000     0          
C272     C      0.587700000000     0.041100000000     0.807200000000     0          
H273     H      0.586700000000     0.025300000000     0.835100000000     0          
H274     H      0.630000000000     0.065100000000     0.802100000000     0          
H275     H      0.549700000000     0.071600000000     0.802500000000     0          
C276     C      0.794200000000     0.941400000000     0.868400000000     0          
C277     C      0.688800000000     0.931200000000     0.807600000000     0          
C278     C      0.729500000000     0.918900000000     0.881500000000     0          
H279     H      0.719100000000     0.908800000000     0.908700000000     0          
C280     C      0.681600000000     0.913000000000     0.849200000000     0          
H281     H      0.639200000000     0.894500000000     0.856400000000     0          
O282     O      0.090700000000     0.023500000000     0.887700000000     0          
O283     O      0.172200000000     0.062700000000     0.938300000000     0          
O284     O      0.084900000000     0.962900000000     0.962100000000     0          
C285     C      0.417700000000     0.021800000000     0.777500000000     0          
C286     C      0.194100000000     0.041300000000     0.827100000000     0          
H287     H      0.150400000000     0.026400000000     0.819600000000     0          
C288     C      0.147200000000     0.052900000000     0.898700000000     0          
C289     C      0.245000000000     0.045200000000     0.796600000000     0          
H290     H      0.235300000000     0.032600000000     0.769600000000     0          
C291     C      0.370600000000     0.076000000000     0.777500000000     0          
C292     C      0.412300000000     0.958900000000     0.807200000000     0          
H293     H      0.413300000000     0.974700000000     0.835100000000     0          
H294     H      0.370000000000     0.934900000000     0.802100000000     0          
H295     H      0.450300000000     0.928400000000     0.802500000000     0          
C296     C      0.205800000000     0.058600000000     0.868400000000     0          
C297     C      0.311200000000     0.068800000000     0.807600000000     0          
C298     C      0.270500000000     0.081100000000     0.881500000000     0          
H299     H      0.280900000000     0.091200000000     0.908700000000     0          
C300     C      0.318400000000     0.087000000000     0.849200000000     0          
H301     H      0.360800000000     0.105500000000     0.856400000000     0          
O302     O      0.976500000000     0.090700000000     0.887700000000     0          
O303     O      0.937300000000     0.172200000000     0.938300000000     0          
O304     O      0.037100000000     0.084900000000     0.962100000000     0          
C305     C      0.978200000000     0.417700000000     0.777500000000     0          
C306     C      0.958700000000     0.194100000000     0.827100000000     0          
H307     H      0.973600000000     0.150400000000     0.819600000000     0          
C308     C      0.947100000000     0.147200000000     0.898700000000     0          
C309     C      0.954800000000     0.245000000000     0.796600000000     0          
H310     H      0.967400000000     0.235300000000     0.769600000000     0          
C311     C      0.924000000000     0.370600000000     0.777500000000     0          
C312     C      0.041100000000     0.412300000000     0.807200000000     0          
H313     H      0.025300000000     0.413300000000     0.835100000000     0          
H314     H      0.065100000000     0.370000000000     0.802100000000     0          
H315     H      0.071600000000     0.450300000000     0.802500000000     0          
C316     C      0.941400000000     0.205800000000     0.868400000000     0          
C317     C      0.931200000000     0.311200000000     0.807600000000     0          
C318     C      0.918900000000     0.270500000000     0.881500000000     0          
H319     H      0.908800000000     0.280900000000     0.908700000000     0          
C320     C      0.913000000000     0.318400000000     0.849200000000     0          
H321     H      0.894500000000     0.360800000000     0.856400000000     0          
H322     H      0.823100000000     0.281300000000     0.771500000000     0          
H323     H      0.813800000000     0.290600000000     0.724000000000     0          
H324     H      0.769700000000     0.334700000000     0.754500000000     0          
O325     O      0.023500000000     0.909300000000     0.887700000000     0          
O326     O      0.062700000000     0.827800000000     0.938300000000     0          
O327     O      0.962900000000     0.915100000000     0.962100000000     0          
C328     C      0.021800000000     0.582300000000     0.777500000000     0          
C329     C      0.041300000000     0.805900000000     0.827100000000     0          
H330     H      0.026400000000     0.849600000000     0.819600000000     0          
C331     C      0.052900000000     0.852800000000     0.898700000000     0          
C332     C      0.045200000000     0.755000000000     0.796600000000     0          
H333     H      0.032600000000     0.764700000000     0.769600000000     0          
C334     C      0.076000000000     0.629400000000     0.777500000000     0          
C335     C      0.958900000000     0.587700000000     0.807200000000     0          
H336     H      0.974700000000     0.586700000000     0.835100000000     0          
H337     H      0.934900000000     0.630000000000     0.802100000000     0          
H338     H      0.928400000000     0.549700000000     0.802500000000     0          
C339     C      0.058600000000     0.794200000000     0.868400000000     0          
C340     C      0.068800000000     0.688800000000     0.807600000000     0          
C341     C      0.081100000000     0.729500000000     0.881500000000     0          
H342     H      0.091200000000     0.719100000000     0.908700000000     0          
C343     C      0.087000000000     0.681600000000     0.849200000000     0          
H344     H      0.105500000000     0.639200000000     0.856400000000     0          
Zr345    Zr     0.454700000000     0.378530000000     0.500000000000     0          
Zr346    Zr     0.545300000000     0.621470000000     0.500000000000     0          
Zr347    Zr     0.621470000000     0.454700000000     0.500000000000     0          
Zr348    Zr     0.378530000000     0.545300000000     0.500000000000     0          
Zr349    Zr     0.045300000000     0.878530000000     0.000000000000     0          
Zr350    Zr     0.954700000000     0.121470000000     0.000000000000     0          
Zr351    Zr     0.878530000000     0.954700000000     0.000000000000     0          
Zr352    Zr     0.121470000000     0.045300000000     0.000000000000     0          
Zr353    Zr     0.500000000000     0.500000000000     0.424100000000     0          
Zr354    Zr     0.000000000000     0.000000000000     0.075900000000     0          
Zr355    Zr     0.500000000000     0.500000000000     0.575900000000     0          
Zr356    Zr     0.000000000000     0.000000000000     0.924100000000     0          
C357     C      0.027350000000     0.527350000000     0.250000000000     0          
C358     C      0.131300000000     0.631300000000     0.250000000000     0          
C359     C      0.186200000000     0.686200000000     0.250000000000     0          
C360     C      0.972650000000     0.472650000000     0.250000000000     0          
C361     C      0.868700000000     0.368700000000     0.250000000000     0          
C362     C      0.813800000000     0.313800000000     0.250000000000     0          
C363     C      0.472650000000     0.027350000000     0.250000000000     0          
C364     C      0.368700000000     0.131300000000     0.250000000000     0          
C365     C      0.313800000000     0.186200000000     0.250000000000     0          
C366     C      0.527350000000     0.972650000000     0.250000000000     0          
C367     C      0.631300000000     0.868700000000     0.250000000000     0          
C368     C      0.686200000000     0.813800000000     0.250000000000     0          
C369     C      0.972650000000     0.472650000000     0.750000000000     0          
C370     C      0.868700000000     0.368700000000     0.750000000000     0          
C371     C      0.813800000000     0.313800000000     0.750000000000     0          
C372     C      0.027350000000     0.527350000000     0.750000000000     0          
C373     C      0.131300000000     0.631300000000     0.750000000000     0          
C374     C      0.186200000000     0.686200000000     0.750000000000     0          
C375     C      0.527350000000     0.972650000000     0.750000000000     0          
C376     C      0.631300000000     0.868700000000     0.750000000000     0          
C377     C      0.686200000000     0.813800000000     0.750000000000     0          
C378     C      0.472650000000     0.027350000000     0.750000000000     0          
C379     C      0.368700000000     0.131300000000     0.750000000000     0          
C380     C      0.313800000000     0.186200000000     0.750000000000     0          


