data_NEVSUF11

_audit_creation_method RASPA-1.0
_audit_creation_date 2020-11-2
_audit_author_name 'Rocio Bueno-Perez'

_cell_length_a    18.9111
_cell_length_b    18.9111
_cell_length_c    33.1966
_cell_angle_alpha 90
_cell_angle_beta  90
_cell_angle_gamma 90
_cell_volume      11872.1

_symmetry_cell_setting          triclinic
_symmetry_space_group_name_Hall 'P 1'
_symmetry_space_group_name_H-M  'P 1'
_symmetry_Int_Tables_number     1

_symmetry_equiv_pos_as_xyz 'x,y,z'

loop_
_atom_site_label
_atom_site_type_symbol
_atom_site_fract_x
_atom_site_fract_y
_atom_site_fract_z
_atom_site_charge
O1       O      0.466200000000     0.408000000000     0.392300000000     0          
O2       O      0.435600000000     0.326000000000     0.440100000000     0          
O3       O      0.585500000000     0.539100000000     0.465300000000     0          
C4       C      0.436600000000     0.293500000000     0.369600000000     0          
C5       C      0.440500000000     0.348200000000     0.402300000000     0          
C6       C      0.473700000000     0.081000000000     0.279300000000     0          
C7       C      0.420900000000     0.132300000000     0.278200000000     0          
C8       C      0.532200000000     0.087200000000     0.309500000000     0          
H9       H      0.520300000000     0.060400000000     0.333200000000     0          
H10      H      0.538500000000     0.136000000000     0.316700000000     0          
H11      H      0.575200000000     0.069100000000     0.298100000000     0          
C12      C      0.424900000000     0.187000000000     0.310900000000     0          
C13      C      0.448800000000     0.306600000000     0.331500000000     0          
H14      H      0.460600000000     0.352400000000     0.323900000000     0          
C15      C      0.417000000000     0.222000000000     0.381800000000     0          
H16      H      0.409300000000     0.210800000000     0.408800000000     0          
C17      C      0.444800000000     0.255600000000     0.302400000000     0          
H18      H      0.455900000000     0.267500000000     0.275900000000     0          
C19      C      0.410100000000     0.169700000000     0.351100000000     0          
H20      H      0.395800000000     0.124200000000     0.357800000000     0          
O21      O      0.533800000000     0.592000000000     0.392300000000     0          
O22      O      0.564400000000     0.674000000000     0.440100000000     0          
O23      O      0.414500000000     0.460900000000     0.465300000000     0          
C24      C      0.563400000000     0.706500000000     0.369600000000     0          
C25      C      0.559500000000     0.651800000000     0.402300000000     0          
C26      C      0.526300000000     0.919000000000     0.279300000000     0          
C27      C      0.579100000000     0.867700000000     0.278200000000     0          
C28      C      0.467800000000     0.912800000000     0.309500000000     0          
H29      H      0.479700000000     0.939600000000     0.333200000000     0          
H30      H      0.461500000000     0.864000000000     0.316700000000     0          
H31      H      0.424800000000     0.930900000000     0.298100000000     0          
C32      C      0.575100000000     0.813000000000     0.310900000000     0          
C33      C      0.551200000000     0.693400000000     0.331500000000     0          
H34      H      0.539400000000     0.647600000000     0.323900000000     0          
C35      C      0.583000000000     0.778000000000     0.381800000000     0          
H36      H      0.590700000000     0.789200000000     0.408800000000     0          
C37      C      0.555200000000     0.744400000000     0.302400000000     0          
H38      H      0.544100000000     0.732500000000     0.275900000000     0          
C39      C      0.589900000000     0.830300000000     0.351100000000     0          
H40      H      0.604200000000     0.875800000000     0.357800000000     0          
O41      O      0.592000000000     0.466200000000     0.392300000000     0          
O42      O      0.674000000000     0.435600000000     0.440100000000     0          
O43      O      0.460900000000     0.585500000000     0.465300000000     0          
C44      C      0.706500000000     0.436600000000     0.369600000000     0          
C45      C      0.651800000000     0.440500000000     0.402300000000     0          
C46      C      0.919000000000     0.473700000000     0.279300000000     0          
C47      C      0.867700000000     0.420900000000     0.278200000000     0          
C48      C      0.912800000000     0.532200000000     0.309500000000     0          
H49      H      0.939600000000     0.520300000000     0.333200000000     0          
H50      H      0.864000000000     0.538500000000     0.316700000000     0          
H51      H      0.930900000000     0.575200000000     0.298100000000     0          
C52      C      0.813000000000     0.424900000000     0.310900000000     0          
C53      C      0.693400000000     0.448800000000     0.331500000000     0          
H54      H      0.647600000000     0.460600000000     0.323900000000     0          
C55      C      0.778000000000     0.417000000000     0.381800000000     0          
H56      H      0.789200000000     0.409300000000     0.408800000000     0          
C57      C      0.744400000000     0.444800000000     0.302400000000     0          
H58      H      0.732500000000     0.455900000000     0.275900000000     0          
C59      C      0.830300000000     0.410100000000     0.351100000000     0          
H60      H      0.875800000000     0.395800000000     0.357800000000     0          
O61      O      0.408000000000     0.533800000000     0.392300000000     0          
O62      O      0.326000000000     0.564400000000     0.440100000000     0          
O63      O      0.539100000000     0.414500000000     0.465300000000     0          
C64      C      0.293500000000     0.563400000000     0.369600000000     0          
C65      C      0.348200000000     0.559500000000     0.402300000000     0          
C66      C      0.081000000000     0.526300000000     0.279300000000     0          
C67      C      0.132300000000     0.579100000000     0.278200000000     0          
C68      C      0.087200000000     0.467800000000     0.309500000000     0          
H69      H      0.060400000000     0.479700000000     0.333200000000     0          
H70      H      0.136000000000     0.461500000000     0.316700000000     0          
H71      H      0.069100000000     0.424800000000     0.298100000000     0          
C72      C      0.187000000000     0.575100000000     0.310900000000     0          
C73      C      0.306600000000     0.551200000000     0.331500000000     0          
H74      H      0.352400000000     0.539400000000     0.323900000000     0          
C75      C      0.222000000000     0.583000000000     0.381800000000     0          
H76      H      0.210800000000     0.590700000000     0.408800000000     0          
C77      C      0.255600000000     0.555200000000     0.302400000000     0          
H78      H      0.267500000000     0.544100000000     0.275900000000     0          
C79      C      0.169700000000     0.589900000000     0.351100000000     0          
H80      H      0.124200000000     0.604200000000     0.357800000000     0          
H81      H      0.221900000000     0.680900000000     0.271700000000     0          
H82      H      0.214500000000     0.688300000000     0.224900000000     0          
H83      H      0.167800000000     0.735000000000     0.253400000000     0          
O84      O      0.033800000000     0.908000000000     0.107700000000     0          
O85      O      0.064400000000     0.826000000000     0.059900000000     0          
O86      O      0.914500000000     0.039100000000     0.034700000000     0          
C87      C      0.063400000000     0.793500000000     0.130400000000     0          
C88      C      0.059500000000     0.848200000000     0.097700000000     0          
C89      C      0.026300000000     0.581000000000     0.220700000000     0          
C90      C      0.079100000000     0.632300000000     0.221800000000     0          
C91      C      0.967800000000     0.587200000000     0.190500000000     0          
H92      H      0.979700000000     0.560400000000     0.166800000000     0          
H93      H      0.961500000000     0.636000000000     0.183300000000     0          
H94      H      0.924800000000     0.569100000000     0.201900000000     0          
C95      C      0.075100000000     0.687000000000     0.189100000000     0          
C96      C      0.051200000000     0.806600000000     0.168500000000     0          
H97      H      0.039400000000     0.852400000000     0.176100000000     0          
C98      C      0.083000000000     0.722000000000     0.118200000000     0          
H99      H      0.090700000000     0.710800000000     0.091200000000     0          
C100     C      0.055200000000     0.755600000000     0.197600000000     0          
H101     H      0.044100000000     0.767500000000     0.224100000000     0          
C102     C      0.089900000000     0.669700000000     0.148900000000     0          
H103     H      0.104200000000     0.624200000000     0.142200000000     0          
O104     O      0.966200000000     0.092000000000     0.107700000000     0          
O105     O      0.935600000000     0.174000000000     0.059900000000     0          
O106     O      0.085500000000     0.960900000000     0.034700000000     0          
C107     C      0.936600000000     0.206500000000     0.130400000000     0          
C108     C      0.940500000000     0.151800000000     0.097700000000     0          
C109     C      0.973700000000     0.419000000000     0.220700000000     0          
C110     C      0.920900000000     0.367700000000     0.221800000000     0          
C111     C      0.032200000000     0.412800000000     0.190500000000     0          
H112     H      0.020300000000     0.439600000000     0.166800000000     0          
H113     H      0.038500000000     0.364000000000     0.183300000000     0          
H114     H      0.075200000000     0.430900000000     0.201900000000     0          
C115     C      0.924900000000     0.313000000000     0.189100000000     0          
C116     C      0.948800000000     0.193400000000     0.168500000000     0          
H117     H      0.960600000000     0.147600000000     0.176100000000     0          
C118     C      0.917000000000     0.278000000000     0.118200000000     0          
H119     H      0.909300000000     0.289200000000     0.091200000000     0          
C120     C      0.944800000000     0.244400000000     0.197600000000     0          
H121     H      0.955900000000     0.232500000000     0.224100000000     0          
C122     C      0.910100000000     0.330300000000     0.148900000000     0          
H123     H      0.895800000000     0.375800000000     0.142200000000     0          
H124     H      0.819100000000     0.278100000000     0.228300000000     0          
H125     H      0.811700000000     0.285500000000     0.275100000000     0          
H126     H      0.765000000000     0.332200000000     0.246600000000     0          
O127     O      0.908000000000     0.966200000000     0.107700000000     0          
O128     O      0.826000000000     0.935600000000     0.059900000000     0          
O129     O      0.039100000000     0.085500000000     0.034700000000     0          
C130     C      0.793500000000     0.936600000000     0.130400000000     0          
C131     C      0.848200000000     0.940500000000     0.097700000000     0          
C132     C      0.581000000000     0.973700000000     0.220700000000     0          
C133     C      0.632300000000     0.920900000000     0.221800000000     0          
C134     C      0.587200000000     0.032200000000     0.190500000000     0          
H135     H      0.560400000000     0.020300000000     0.166800000000     0          
H136     H      0.636000000000     0.038500000000     0.183300000000     0          
H137     H      0.569100000000     0.075200000000     0.201900000000     0          
C138     C      0.687000000000     0.924900000000     0.189100000000     0          
C139     C      0.806600000000     0.948800000000     0.168500000000     0          
H140     H      0.852400000000     0.960600000000     0.176100000000     0          
C141     C      0.722000000000     0.917000000000     0.118200000000     0          
H142     H      0.710800000000     0.909300000000     0.091200000000     0          
C143     C      0.755600000000     0.944800000000     0.197600000000     0          
H144     H      0.767500000000     0.955900000000     0.224100000000     0          
C145     C      0.669700000000     0.910100000000     0.148900000000     0          
H146     H      0.624200000000     0.895800000000     0.142200000000     0          
H147     H      0.721900000000     0.819100000000     0.228300000000     0          
H148     H      0.714500000000     0.811700000000     0.275100000000     0          
H149     H      0.667800000000     0.765000000000     0.246600000000     0          
O150     O      0.092000000000     0.033800000000     0.107700000000     0          
O151     O      0.174000000000     0.064400000000     0.059900000000     0          
O152     O      0.960900000000     0.914500000000     0.034700000000     0          
C153     C      0.206500000000     0.063400000000     0.130400000000     0          
C154     C      0.151800000000     0.059500000000     0.097700000000     0          
C155     C      0.419000000000     0.026300000000     0.220700000000     0          
C156     C      0.367700000000     0.079100000000     0.221800000000     0          
C157     C      0.412800000000     0.967800000000     0.190500000000     0          
H158     H      0.439600000000     0.979700000000     0.166800000000     0          
H159     H      0.364000000000     0.961500000000     0.183300000000     0          
H160     H      0.430900000000     0.924800000000     0.201900000000     0          
C161     C      0.313000000000     0.075100000000     0.189100000000     0          
C162     C      0.193400000000     0.051200000000     0.168500000000     0          
H163     H      0.147600000000     0.039400000000     0.176100000000     0          
C164     C      0.278000000000     0.083000000000     0.118200000000     0          
H165     H      0.289200000000     0.090700000000     0.091200000000     0          
C166     C      0.244400000000     0.055200000000     0.197600000000     0          
H167     H      0.232500000000     0.044100000000     0.224100000000     0          
C168     C      0.330300000000     0.089900000000     0.148900000000     0          
H169     H      0.375800000000     0.104200000000     0.142200000000     0          
H170     H      0.278100000000     0.180900000000     0.228300000000     0          
H171     H      0.285500000000     0.188300000000     0.275100000000     0          
H172     H      0.332200000000     0.235000000000     0.246600000000     0          
O173     O      0.533800000000     0.592000000000     0.607700000000     0          
O174     O      0.564400000000     0.674000000000     0.559900000000     0          
O175     O      0.414500000000     0.460900000000     0.534700000000     0          
C176     C      0.563400000000     0.706500000000     0.630400000000     0          
C177     C      0.559500000000     0.651800000000     0.597700000000     0          
C178     C      0.526300000000     0.919000000000     0.720700000000     0          
C179     C      0.579100000000     0.867700000000     0.721800000000     0          
C180     C      0.467800000000     0.912800000000     0.690500000000     0          
H181     H      0.479700000000     0.939600000000     0.666800000000     0          
H182     H      0.461500000000     0.864000000000     0.683300000000     0          
H183     H      0.424800000000     0.930900000000     0.701900000000     0          
C184     C      0.575100000000     0.813000000000     0.689100000000     0          
C185     C      0.551200000000     0.693400000000     0.668500000000     0          
H186     H      0.539400000000     0.647600000000     0.676100000000     0          
C187     C      0.583000000000     0.778000000000     0.618200000000     0          
H188     H      0.590700000000     0.789200000000     0.591200000000     0          
C189     C      0.555200000000     0.744400000000     0.697600000000     0          
H190     H      0.544100000000     0.732500000000     0.724100000000     0          
C191     C      0.589900000000     0.830300000000     0.648900000000     0          
H192     H      0.604200000000     0.875800000000     0.642200000000     0          
H193     H      0.680900000000     0.778100000000     0.728300000000     0          
H194     H      0.688300000000     0.785500000000     0.775100000000     0          
H195     H      0.735000000000     0.832200000000     0.746600000000     0          
O196     O      0.466200000000     0.408000000000     0.607700000000     0          
O197     O      0.435600000000     0.326000000000     0.559900000000     0          
O198     O      0.585500000000     0.539100000000     0.534700000000     0          
C199     C      0.436600000000     0.293500000000     0.630400000000     0          
C200     C      0.440500000000     0.348200000000     0.597700000000     0          
C201     C      0.473700000000     0.081000000000     0.720700000000     0          
C202     C      0.420900000000     0.132300000000     0.721800000000     0          
C203     C      0.532200000000     0.087200000000     0.690500000000     0          
H204     H      0.520300000000     0.060400000000     0.666800000000     0          
H205     H      0.538500000000     0.136000000000     0.683300000000     0          
H206     H      0.575200000000     0.069100000000     0.701900000000     0          
C207     C      0.424900000000     0.187000000000     0.689100000000     0          
C208     C      0.448800000000     0.306600000000     0.668500000000     0          
H209     H      0.460600000000     0.352400000000     0.676100000000     0          
C210     C      0.417000000000     0.222000000000     0.618200000000     0          
H211     H      0.409300000000     0.210800000000     0.591200000000     0          
C212     C      0.444800000000     0.255600000000     0.697600000000     0          
H213     H      0.455900000000     0.267500000000     0.724100000000     0          
C214     C      0.410100000000     0.169700000000     0.648900000000     0          
H215     H      0.395800000000     0.124200000000     0.642200000000     0          
O216     O      0.408000000000     0.533800000000     0.607700000000     0          
O217     O      0.326000000000     0.564400000000     0.559900000000     0          
O218     O      0.539100000000     0.414500000000     0.534700000000     0          
C219     C      0.293500000000     0.563400000000     0.630400000000     0          
C220     C      0.348200000000     0.559500000000     0.597700000000     0          
C221     C      0.081000000000     0.526300000000     0.720700000000     0          
C222     C      0.132300000000     0.579100000000     0.721800000000     0          
C223     C      0.087200000000     0.467800000000     0.690500000000     0          
H224     H      0.060400000000     0.479700000000     0.666800000000     0          
H225     H      0.136000000000     0.461500000000     0.683300000000     0          
H226     H      0.069100000000     0.424800000000     0.701900000000     0          
C227     C      0.187000000000     0.575100000000     0.689100000000     0          
C228     C      0.306600000000     0.551200000000     0.668500000000     0          
H229     H      0.352400000000     0.539400000000     0.676100000000     0          
C230     C      0.222000000000     0.583000000000     0.618200000000     0          
H231     H      0.210800000000     0.590700000000     0.591200000000     0          
C232     C      0.255600000000     0.555200000000     0.697600000000     0          
H233     H      0.267500000000     0.544100000000     0.724100000000     0          
C234     C      0.169700000000     0.589900000000     0.648900000000     0          
H235     H      0.124200000000     0.604200000000     0.642200000000     0          
O236     O      0.592000000000     0.466200000000     0.607700000000     0          
O237     O      0.674000000000     0.435600000000     0.559900000000     0          
O238     O      0.460900000000     0.585500000000     0.534700000000     0          
C239     C      0.706500000000     0.436600000000     0.630400000000     0          
C240     C      0.651800000000     0.440500000000     0.597700000000     0          
C241     C      0.919000000000     0.473700000000     0.720700000000     0          
C242     C      0.867700000000     0.420900000000     0.721800000000     0          
C243     C      0.912800000000     0.532200000000     0.690500000000     0          
H244     H      0.939600000000     0.520300000000     0.666800000000     0          
H245     H      0.864000000000     0.538500000000     0.683300000000     0          
H246     H      0.930900000000     0.575200000000     0.701900000000     0          
C247     C      0.813000000000     0.424900000000     0.689100000000     0          
C248     C      0.693400000000     0.448800000000     0.668500000000     0          
H249     H      0.647600000000     0.460600000000     0.676100000000     0          
C250     C      0.778000000000     0.417000000000     0.618200000000     0          
H251     H      0.789200000000     0.409300000000     0.591200000000     0          
C252     C      0.744400000000     0.444800000000     0.697600000000     0          
H253     H      0.732500000000     0.455900000000     0.724100000000     0          
C254     C      0.830300000000     0.410100000000     0.648900000000     0          
H255     H      0.875800000000     0.395800000000     0.642200000000     0          
O256     O      0.966200000000     0.092000000000     0.892300000000     0          
O257     O      0.935600000000     0.174000000000     0.940100000000     0          
O258     O      0.085500000000     0.960900000000     0.965300000000     0          
C259     C      0.936600000000     0.206500000000     0.869600000000     0          
C260     C      0.940500000000     0.151800000000     0.902300000000     0          
C261     C      0.973700000000     0.419000000000     0.779300000000     0          
C262     C      0.920900000000     0.367700000000     0.778200000000     0          
C263     C      0.032200000000     0.412800000000     0.809500000000     0          
H264     H      0.020300000000     0.439600000000     0.833200000000     0          
H265     H      0.038500000000     0.364000000000     0.816700000000     0          
H266     H      0.075200000000     0.430900000000     0.798100000000     0          
C267     C      0.924900000000     0.313000000000     0.810900000000     0          
C268     C      0.948800000000     0.193400000000     0.831500000000     0          
H269     H      0.960600000000     0.147600000000     0.823900000000     0          
C270     C      0.917000000000     0.278000000000     0.881800000000     0          
H271     H      0.909300000000     0.289200000000     0.908800000000     0          
C272     C      0.944800000000     0.244400000000     0.802400000000     0          
H273     H      0.955900000000     0.232500000000     0.775900000000     0          
C274     C      0.910100000000     0.330300000000     0.851100000000     0          
H275     H      0.895800000000     0.375800000000     0.857800000000     0          
H276     H      0.819100000000     0.278100000000     0.771700000000     0          
H277     H      0.811700000000     0.285500000000     0.724900000000     0          
H278     H      0.765000000000     0.332200000000     0.753400000000     0          
O279     O      0.033800000000     0.908000000000     0.892300000000     0          
O280     O      0.064400000000     0.826000000000     0.940100000000     0          
O281     O      0.914500000000     0.039100000000     0.965300000000     0          
C282     C      0.063400000000     0.793500000000     0.869600000000     0          
C283     C      0.059500000000     0.848200000000     0.902300000000     0          
C284     C      0.026300000000     0.581000000000     0.779300000000     0          
C285     C      0.079100000000     0.632300000000     0.778200000000     0          
C286     C      0.967800000000     0.587200000000     0.809500000000     0          
H287     H      0.979700000000     0.560400000000     0.833200000000     0          
H288     H      0.961500000000     0.636000000000     0.816700000000     0          
H289     H      0.924800000000     0.569100000000     0.798100000000     0          
C290     C      0.075100000000     0.687000000000     0.810900000000     0          
C291     C      0.051200000000     0.806600000000     0.831500000000     0          
H292     H      0.039400000000     0.852400000000     0.823900000000     0          
C293     C      0.083000000000     0.722000000000     0.881800000000     0          
H294     H      0.090700000000     0.710800000000     0.908800000000     0          
C295     C      0.055200000000     0.755600000000     0.802400000000     0          
H296     H      0.044100000000     0.767500000000     0.775900000000     0          
C297     C      0.089900000000     0.669700000000     0.851100000000     0          
H298     H      0.104200000000     0.624200000000     0.857800000000     0          
H299     H      0.180900000000     0.721900000000     0.771700000000     0          
H300     H      0.188300000000     0.714500000000     0.724900000000     0          
H301     H      0.235000000000     0.667800000000     0.753400000000     0          
O302     O      0.092000000000     0.033800000000     0.892300000000     0          
O303     O      0.174000000000     0.064400000000     0.940100000000     0          
O304     O      0.960900000000     0.914500000000     0.965300000000     0          
C305     C      0.206500000000     0.063400000000     0.869600000000     0          
C306     C      0.151800000000     0.059500000000     0.902300000000     0          
C307     C      0.419000000000     0.026300000000     0.779300000000     0          
C308     C      0.367700000000     0.079100000000     0.778200000000     0          
C309     C      0.412800000000     0.967800000000     0.809500000000     0          
H310     H      0.439600000000     0.979700000000     0.833200000000     0          
H311     H      0.364000000000     0.961500000000     0.816700000000     0          
H312     H      0.430900000000     0.924800000000     0.798100000000     0          
C313     C      0.313000000000     0.075100000000     0.810900000000     0          
C314     C      0.193400000000     0.051200000000     0.831500000000     0          
H315     H      0.147600000000     0.039400000000     0.823900000000     0          
C316     C      0.278000000000     0.083000000000     0.881800000000     0          
H317     H      0.289200000000     0.090700000000     0.908800000000     0          
C318     C      0.244400000000     0.055200000000     0.802400000000     0          
H319     H      0.232500000000     0.044100000000     0.775900000000     0          
C320     C      0.330300000000     0.089900000000     0.851100000000     0          
H321     H      0.375800000000     0.104200000000     0.857800000000     0          
H322     H      0.278100000000     0.180900000000     0.771700000000     0          
H323     H      0.285500000000     0.188300000000     0.724900000000     0          
H324     H      0.332200000000     0.235000000000     0.753400000000     0          
O325     O      0.908000000000     0.966200000000     0.892300000000     0          
O326     O      0.826000000000     0.935600000000     0.940100000000     0          
O327     O      0.039100000000     0.085500000000     0.965300000000     0          
C328     C      0.793500000000     0.936600000000     0.869600000000     0          
C329     C      0.848200000000     0.940500000000     0.902300000000     0          
C330     C      0.581000000000     0.973700000000     0.779300000000     0          
C331     C      0.632300000000     0.920900000000     0.778200000000     0          
C332     C      0.587200000000     0.032200000000     0.809500000000     0          
H333     H      0.560400000000     0.020300000000     0.833200000000     0          
H334     H      0.636000000000     0.038500000000     0.816700000000     0          
H335     H      0.569100000000     0.075200000000     0.798100000000     0          
C336     C      0.687000000000     0.924900000000     0.810900000000     0          
C337     C      0.806600000000     0.948800000000     0.831500000000     0          
H338     H      0.852400000000     0.960600000000     0.823900000000     0          
C339     C      0.722000000000     0.917000000000     0.881800000000     0          
H340     H      0.710800000000     0.909300000000     0.908800000000     0          
C341     C      0.755600000000     0.944800000000     0.802400000000     0          
H342     H      0.767500000000     0.955900000000     0.775900000000     0          
C343     C      0.669700000000     0.910100000000     0.851100000000     0          
H344     H      0.624200000000     0.895800000000     0.857800000000     0          
Zr345    Zr     0.500000000000     0.500000000000     0.426470000000     0          
Zr346    Zr     0.000000000000     0.000000000000     0.073530000000     0          
Zr347    Zr     0.500000000000     0.500000000000     0.573530000000     0          
Zr348    Zr     0.000000000000     0.000000000000     0.926470000000     0          
Zr349    Zr     0.547080000000     0.622960000000     0.500000000000     0          
Zr350    Zr     0.452920000000     0.377040000000     0.500000000000     0          
Zr351    Zr     0.377040000000     0.547080000000     0.500000000000     0          
Zr352    Zr     0.622960000000     0.452920000000     0.500000000000     0          
Zr353    Zr     0.952920000000     0.122960000000     0.000000000000     0          
Zr354    Zr     0.047080000000     0.877040000000     0.000000000000     0          
Zr355    Zr     0.122960000000     0.047080000000     0.000000000000     0          
Zr356    Zr     0.877040000000     0.952920000000     0.000000000000     0          
C357     C      0.471860000000     0.028140000000     0.250000000000     0          
C358     C      0.366600000000     0.133400000000     0.250000000000     0          
C359     C      0.310600000000     0.189400000000     0.250000000000     0          
C360     C      0.528140000000     0.971860000000     0.250000000000     0          
C361     C      0.633400000000     0.866600000000     0.250000000000     0          
C362     C      0.689400000000     0.810600000000     0.250000000000     0          
C363     C      0.971860000000     0.471860000000     0.250000000000     0          
C364     C      0.866600000000     0.366600000000     0.250000000000     0          
C365     C      0.810600000000     0.310600000000     0.250000000000     0          
C366     C      0.028140000000     0.528140000000     0.250000000000     0          
C367     C      0.133400000000     0.633400000000     0.250000000000     0          
C368     C      0.189400000000     0.689400000000     0.250000000000     0          
C369     C      0.528140000000     0.971860000000     0.750000000000     0          
C370     C      0.633400000000     0.866600000000     0.750000000000     0          
C371     C      0.689400000000     0.810600000000     0.750000000000     0          
C372     C      0.471860000000     0.028140000000     0.750000000000     0          
C373     C      0.366600000000     0.133400000000     0.750000000000     0          
C374     C      0.310600000000     0.189400000000     0.750000000000     0          
C375     C      0.028140000000     0.528140000000     0.750000000000     0          
C376     C      0.133400000000     0.633400000000     0.750000000000     0          
C377     C      0.189400000000     0.689400000000     0.750000000000     0          
C378     C      0.971860000000     0.471860000000     0.750000000000     0          
C379     C      0.866600000000     0.366600000000     0.750000000000     0          
C380     C      0.810600000000     0.310600000000     0.750000000000     0          


