data_NEVSUF03

_audit_creation_method RASPA-1.0
_audit_creation_date 2020-11-2
_audit_author_name 'Rocio Bueno-Perez'

_cell_length_a    19.1326
_cell_length_b    19.1326
_cell_length_c    33.039
_cell_angle_alpha 90
_cell_angle_beta  90
_cell_angle_gamma 90
_cell_volume      12094.1

_symmetry_cell_setting          triclinic
_symmetry_space_group_name_Hall 'P 1'
_symmetry_space_group_name_H-M  'P 1'
_symmetry_Int_Tables_number     1

_symmetry_equiv_pos_as_xyz 'x,y,z'

loop_
_atom_site_label
_atom_site_type_symbol
_atom_site_fract_x
_atom_site_fract_y
_atom_site_fract_z
_atom_site_charge
O1       O      0.407800000000     0.528800000000     0.390000000000     0          
O2       O      0.326100000000     0.561500000000     0.438900000000     0          
O3       O      0.415400000000     0.463000000000     0.463800000000     0          
C4       C      0.084400000000     0.525200000000     0.276700000000     0          
C5       C      0.303200000000     0.543500000000     0.331300000000     0          
H6       H      0.347400000000     0.524800000000     0.326900000000     0          
C7       C      0.349300000000     0.557900000000     0.400700000000     0          
C8       C      0.260300000000     0.546500000000     0.297400000000     0          
H9       H      0.273100000000     0.533500000000     0.271300000000     0          
C10      C      0.134000000000     0.578800000000     0.279500000000     0          
C11      C      0.087800000000     0.467500000000     0.308100000000     0          
H12      H      0.072800000000     0.485300000000     0.333800000000     0          
H13      H      0.135000000000     0.450800000000     0.310300000000     0          
H14      H      0.057800000000     0.429700000000     0.300100000000     0          
C15      C      0.289700000000     0.564500000000     0.371100000000     0          
C16      C      0.194600000000     0.572400000000     0.309000000000     0          
C17      C      0.224500000000     0.590300000000     0.382100000000     0          
H18      H      0.211900000000     0.603200000000     0.408200000000     0          
C19      C      0.180600000000     0.594300000000     0.348600000000     0          
H20      H      0.136800000000     0.613900000000     0.353100000000     0          
O21      O      0.592200000000     0.471200000000     0.390000000000     0          
O22      O      0.673900000000     0.438500000000     0.438900000000     0          
O23      O      0.584600000000     0.537000000000     0.463800000000     0          
C24      C      0.915600000000     0.474800000000     0.276700000000     0          
C25      C      0.696800000000     0.456500000000     0.331300000000     0          
H26      H      0.652600000000     0.475200000000     0.326900000000     0          
C27      C      0.650700000000     0.442100000000     0.400700000000     0          
C28      C      0.739700000000     0.453500000000     0.297400000000     0          
H29      H      0.726900000000     0.466500000000     0.271300000000     0          
C30      C      0.866000000000     0.421200000000     0.279500000000     0          
C31      C      0.912200000000     0.532500000000     0.308100000000     0          
H32      H      0.927200000000     0.514700000000     0.333800000000     0          
H33      H      0.865000000000     0.549200000000     0.310300000000     0          
H34      H      0.942200000000     0.570300000000     0.300100000000     0          
C35      C      0.710300000000     0.435500000000     0.371100000000     0          
C36      C      0.805400000000     0.427600000000     0.309000000000     0          
C37      C      0.775500000000     0.409700000000     0.382100000000     0          
H38      H      0.788100000000     0.396800000000     0.408200000000     0          
C39      C      0.819400000000     0.405700000000     0.348600000000     0          
H40      H      0.863200000000     0.386100000000     0.353100000000     0          
O41      O      0.471200000000     0.407800000000     0.390000000000     0          
O42      O      0.438500000000     0.326100000000     0.438900000000     0          
O43      O      0.537000000000     0.415400000000     0.463800000000     0          
C44      C      0.474800000000     0.084400000000     0.276700000000     0          
C45      C      0.456500000000     0.303200000000     0.331300000000     0          
H46      H      0.475200000000     0.347400000000     0.326900000000     0          
C47      C      0.442100000000     0.349300000000     0.400700000000     0          
C48      C      0.453500000000     0.260300000000     0.297400000000     0          
H49      H      0.466500000000     0.273100000000     0.271300000000     0          
C50      C      0.421200000000     0.134000000000     0.279500000000     0          
C51      C      0.532500000000     0.087800000000     0.308100000000     0          
H52      H      0.514700000000     0.072800000000     0.333800000000     0          
H53      H      0.549200000000     0.135000000000     0.310300000000     0          
H54      H      0.570300000000     0.057800000000     0.300100000000     0          
C55      C      0.435500000000     0.289700000000     0.371100000000     0          
C56      C      0.427600000000     0.194600000000     0.309000000000     0          
C57      C      0.409700000000     0.224500000000     0.382100000000     0          
H58      H      0.396800000000     0.211900000000     0.408200000000     0          
C59      C      0.405700000000     0.180600000000     0.348600000000     0          
H60      H      0.386100000000     0.136800000000     0.353100000000     0          
H61      H      0.321400000000     0.219300000000     0.271700000000     0          
H62      H      0.267900000000     0.165800000000     0.253500000000     0          
H63      H      0.313900000000     0.211800000000     0.224700000000     0          
O64      O      0.528800000000     0.592200000000     0.390000000000     0          
O65      O      0.561500000000     0.673900000000     0.438900000000     0          
O66      O      0.463000000000     0.584600000000     0.463800000000     0          
C67      C      0.525200000000     0.915600000000     0.276700000000     0          
C68      C      0.543500000000     0.696800000000     0.331300000000     0          
H69      H      0.524800000000     0.652600000000     0.326900000000     0          
C70      C      0.557900000000     0.650700000000     0.400700000000     0          
C71      C      0.546500000000     0.739700000000     0.297400000000     0          
H72      H      0.533500000000     0.726900000000     0.271300000000     0          
C73      C      0.578800000000     0.866000000000     0.279500000000     0          
C74      C      0.467500000000     0.912200000000     0.308100000000     0          
H75      H      0.485300000000     0.927200000000     0.333800000000     0          
H76      H      0.450800000000     0.865000000000     0.310300000000     0          
H77      H      0.429700000000     0.942200000000     0.300100000000     0          
C78      C      0.564500000000     0.710300000000     0.371100000000     0          
C79      C      0.572400000000     0.805400000000     0.309000000000     0          
C80      C      0.590300000000     0.775500000000     0.382100000000     0          
H81      H      0.603200000000     0.788100000000     0.408200000000     0          
C82      C      0.594300000000     0.819400000000     0.348600000000     0          
H83      H      0.613900000000     0.863200000000     0.353100000000     0          
O84      O      0.092200000000     0.028800000000     0.110000000000     0          
O85      O      0.173900000000     0.061500000000     0.061100000000     0          
O86      O      0.084600000000     0.963000000000     0.036200000000     0          
C87      C      0.415600000000     0.025200000000     0.223300000000     0          
C88      C      0.196800000000     0.043500000000     0.168700000000     0          
H89      H      0.152600000000     0.024800000000     0.173100000000     0          
C90      C      0.150700000000     0.057900000000     0.099300000000     0          
C91      C      0.239700000000     0.046500000000     0.202600000000     0          
H92      H      0.226900000000     0.033500000000     0.228700000000     0          
C93      C      0.366000000000     0.078800000000     0.220500000000     0          
C94      C      0.412200000000     0.967500000000     0.191900000000     0          
H95      H      0.427200000000     0.985300000000     0.166200000000     0          
H96      H      0.365000000000     0.950800000000     0.189700000000     0          
H97      H      0.442200000000     0.929700000000     0.199900000000     0          
C98      C      0.210300000000     0.064500000000     0.128900000000     0          
C99      C      0.305400000000     0.072400000000     0.191000000000     0          
C100     C      0.275500000000     0.090300000000     0.117900000000     0          
H101     H      0.288100000000     0.103200000000     0.091800000000     0          
C102     C      0.319400000000     0.094300000000     0.151400000000     0          
H103     H      0.363200000000     0.113900000000     0.146900000000     0          
O104     O      0.907800000000     0.971200000000     0.110000000000     0          
O105     O      0.826100000000     0.938500000000     0.061100000000     0          
O106     O      0.915400000000     0.037000000000     0.036200000000     0          
C107     C      0.584400000000     0.974800000000     0.223300000000     0          
C108     C      0.803200000000     0.956500000000     0.168700000000     0          
H109     H      0.847400000000     0.975200000000     0.173100000000     0          
C110     C      0.849300000000     0.942100000000     0.099300000000     0          
C111     C      0.760300000000     0.953500000000     0.202600000000     0          
H112     H      0.773100000000     0.966500000000     0.228700000000     0          
C113     C      0.634000000000     0.921200000000     0.220500000000     0          
C114     C      0.587800000000     0.032500000000     0.191900000000     0          
H115     H      0.572800000000     0.014700000000     0.166200000000     0          
H116     H      0.635000000000     0.049200000000     0.189700000000     0          
H117     H      0.557800000000     0.070300000000     0.199900000000     0          
C118     C      0.789700000000     0.935500000000     0.128900000000     0          
C119     C      0.694600000000     0.927600000000     0.191000000000     0          
C120     C      0.724500000000     0.909700000000     0.117900000000     0          
H121     H      0.711900000000     0.896800000000     0.091800000000     0          
C122     C      0.680600000000     0.905700000000     0.151400000000     0          
H123     H      0.636800000000     0.886100000000     0.146900000000     0          
H124     H      0.719300000000     0.821400000000     0.228300000000     0          
H125     H      0.665800000000     0.767900000000     0.246500000000     0          
H126     H      0.711800000000     0.813900000000     0.275300000000     0          
O127     O      0.028800000000     0.907800000000     0.110000000000     0          
O128     O      0.061500000000     0.826100000000     0.061100000000     0          
O129     O      0.963000000000     0.915400000000     0.036200000000     0          
C130     C      0.025200000000     0.584400000000     0.223300000000     0          
C131     C      0.043500000000     0.803200000000     0.168700000000     0          
H132     H      0.024800000000     0.847400000000     0.173100000000     0          
C133     C      0.057900000000     0.849300000000     0.099300000000     0          
C134     C      0.046500000000     0.760300000000     0.202600000000     0          
H135     H      0.033500000000     0.773100000000     0.228700000000     0          
C136     C      0.078800000000     0.634000000000     0.220500000000     0          
C137     C      0.967500000000     0.587800000000     0.191900000000     0          
H138     H      0.985300000000     0.572800000000     0.166200000000     0          
H139     H      0.950800000000     0.635000000000     0.189700000000     0          
H140     H      0.929700000000     0.557800000000     0.199900000000     0          
C141     C      0.064500000000     0.789700000000     0.128900000000     0          
C142     C      0.072400000000     0.694600000000     0.191000000000     0          
C143     C      0.090300000000     0.724500000000     0.117900000000     0          
H144     H      0.103200000000     0.711900000000     0.091800000000     0          
C145     C      0.094300000000     0.680600000000     0.151400000000     0          
H146     H      0.113900000000     0.636800000000     0.146900000000     0          
H147     H      0.178600000000     0.719300000000     0.228300000000     0          
H148     H      0.232100000000     0.665800000000     0.246500000000     0          
H149     H      0.186100000000     0.711800000000     0.275300000000     0          
O150     O      0.971200000000     0.092200000000     0.110000000000     0          
O151     O      0.938500000000     0.173900000000     0.061100000000     0          
O152     O      0.037000000000     0.084600000000     0.036200000000     0          
C153     C      0.974800000000     0.415600000000     0.223300000000     0          
C154     C      0.956500000000     0.196800000000     0.168700000000     0          
H155     H      0.975200000000     0.152600000000     0.173100000000     0          
C156     C      0.942100000000     0.150700000000     0.099300000000     0          
C157     C      0.953500000000     0.239700000000     0.202600000000     0          
H158     H      0.966500000000     0.226900000000     0.228700000000     0          
C159     C      0.921200000000     0.366000000000     0.220500000000     0          
C160     C      0.032500000000     0.412200000000     0.191900000000     0          
H161     H      0.014700000000     0.427200000000     0.166200000000     0          
H162     H      0.049200000000     0.365000000000     0.189700000000     0          
H163     H      0.070300000000     0.442200000000     0.199900000000     0          
C164     C      0.935500000000     0.210300000000     0.128900000000     0          
C165     C      0.927600000000     0.305400000000     0.191000000000     0          
C166     C      0.909700000000     0.275500000000     0.117900000000     0          
H167     H      0.896800000000     0.288100000000     0.091800000000     0          
C168     C      0.905700000000     0.319400000000     0.151400000000     0          
H169     H      0.886100000000     0.363200000000     0.146900000000     0          
H170     H      0.821400000000     0.280700000000     0.228300000000     0          
H171     H      0.767900000000     0.334200000000     0.246500000000     0          
H172     H      0.813900000000     0.288200000000     0.275300000000     0          
O173     O      0.592200000000     0.471200000000     0.610000000000     0          
O174     O      0.673900000000     0.438500000000     0.561100000000     0          
O175     O      0.584600000000     0.537000000000     0.536200000000     0          
C176     C      0.915600000000     0.474800000000     0.723300000000     0          
C177     C      0.696800000000     0.456500000000     0.668700000000     0          
H178     H      0.652600000000     0.475200000000     0.673100000000     0          
C179     C      0.650700000000     0.442100000000     0.599300000000     0          
C180     C      0.739700000000     0.453500000000     0.702600000000     0          
H181     H      0.726900000000     0.466500000000     0.728700000000     0          
C182     C      0.866000000000     0.421200000000     0.720500000000     0          
C183     C      0.912200000000     0.532500000000     0.691900000000     0          
H184     H      0.927200000000     0.514700000000     0.666200000000     0          
H185     H      0.865000000000     0.549200000000     0.689700000000     0          
H186     H      0.942200000000     0.570300000000     0.699900000000     0          
C187     C      0.710300000000     0.435500000000     0.628900000000     0          
C188     C      0.805400000000     0.427600000000     0.691000000000     0          
C189     C      0.775500000000     0.409700000000     0.617900000000     0          
H190     H      0.788100000000     0.396800000000     0.591800000000     0          
C191     C      0.819400000000     0.405700000000     0.651400000000     0          
H192     H      0.863200000000     0.386100000000     0.646900000000     0          
O193     O      0.407800000000     0.528800000000     0.610000000000     0          
O194     O      0.326100000000     0.561500000000     0.561100000000     0          
O195     O      0.415400000000     0.463000000000     0.536200000000     0          
C196     C      0.084400000000     0.525200000000     0.723300000000     0          
C197     C      0.303200000000     0.543500000000     0.668700000000     0          
H198     H      0.347400000000     0.524800000000     0.673100000000     0          
C199     C      0.349300000000     0.557900000000     0.599300000000     0          
C200     C      0.260300000000     0.546500000000     0.702600000000     0          
H201     H      0.273100000000     0.533500000000     0.728700000000     0          
C202     C      0.134000000000     0.578800000000     0.720500000000     0          
C203     C      0.087800000000     0.467500000000     0.691900000000     0          
H204     H      0.072800000000     0.485300000000     0.666200000000     0          
H205     H      0.135000000000     0.450800000000     0.689700000000     0          
H206     H      0.057800000000     0.429700000000     0.699900000000     0          
C207     C      0.289700000000     0.564500000000     0.628900000000     0          
C208     C      0.194600000000     0.572400000000     0.691000000000     0          
C209     C      0.224500000000     0.590300000000     0.617900000000     0          
H210     H      0.211900000000     0.603200000000     0.591800000000     0          
C211     C      0.180600000000     0.594300000000     0.651400000000     0          
H212     H      0.136800000000     0.613900000000     0.646900000000     0          
O213     O      0.528800000000     0.592200000000     0.610000000000     0          
O214     O      0.561500000000     0.673900000000     0.561100000000     0          
O215     O      0.463000000000     0.584600000000     0.536200000000     0          
C216     C      0.525200000000     0.915600000000     0.723300000000     0          
C217     C      0.543500000000     0.696800000000     0.668700000000     0          
H218     H      0.524800000000     0.652600000000     0.673100000000     0          
C219     C      0.557900000000     0.650700000000     0.599300000000     0          
C220     C      0.546500000000     0.739700000000     0.702600000000     0          
H221     H      0.533500000000     0.726900000000     0.728700000000     0          
C222     C      0.578800000000     0.866000000000     0.720500000000     0          
C223     C      0.467500000000     0.912200000000     0.691900000000     0          
H224     H      0.485300000000     0.927200000000     0.666200000000     0          
H225     H      0.450800000000     0.865000000000     0.689700000000     0          
H226     H      0.429700000000     0.942200000000     0.699900000000     0          
C227     C      0.564500000000     0.710300000000     0.628900000000     0          
C228     C      0.572400000000     0.805400000000     0.691000000000     0          
C229     C      0.590300000000     0.775500000000     0.617900000000     0          
H230     H      0.603200000000     0.788100000000     0.591800000000     0          
C231     C      0.594300000000     0.819400000000     0.651400000000     0          
H232     H      0.613900000000     0.863200000000     0.646900000000     0          
H233     H      0.678600000000     0.780700000000     0.728300000000     0          
H234     H      0.732100000000     0.834200000000     0.746500000000     0          
H235     H      0.686100000000     0.788200000000     0.775300000000     0          
O236     O      0.471200000000     0.407800000000     0.610000000000     0          
O237     O      0.438500000000     0.326100000000     0.561100000000     0          
O238     O      0.537000000000     0.415400000000     0.536200000000     0          
C239     C      0.474800000000     0.084400000000     0.723300000000     0          
C240     C      0.456500000000     0.303200000000     0.668700000000     0          
H241     H      0.475200000000     0.347400000000     0.673100000000     0          
C242     C      0.442100000000     0.349300000000     0.599300000000     0          
C243     C      0.453500000000     0.260300000000     0.702600000000     0          
H244     H      0.466500000000     0.273100000000     0.728700000000     0          
C245     C      0.421200000000     0.134000000000     0.720500000000     0          
C246     C      0.532500000000     0.087800000000     0.691900000000     0          
H247     H      0.514700000000     0.072800000000     0.666200000000     0          
H248     H      0.549200000000     0.135000000000     0.689700000000     0          
H249     H      0.570300000000     0.057800000000     0.699900000000     0          
C250     C      0.435500000000     0.289700000000     0.628900000000     0          
C251     C      0.427600000000     0.194600000000     0.691000000000     0          
C252     C      0.409700000000     0.224500000000     0.617900000000     0          
H253     H      0.396800000000     0.211900000000     0.591800000000     0          
C254     C      0.405700000000     0.180600000000     0.651400000000     0          
H255     H      0.386100000000     0.136800000000     0.646900000000     0          
H256     H      0.321400000000     0.219300000000     0.728300000000     0          
H257     H      0.267900000000     0.165800000000     0.746500000000     0          
H258     H      0.313900000000     0.211800000000     0.775300000000     0          
O259     O      0.907800000000     0.971200000000     0.890000000000     0          
O260     O      0.826100000000     0.938500000000     0.938900000000     0          
O261     O      0.915400000000     0.037000000000     0.963800000000     0          
C262     C      0.584400000000     0.974800000000     0.776700000000     0          
C263     C      0.803200000000     0.956500000000     0.831300000000     0          
H264     H      0.847400000000     0.975200000000     0.826900000000     0          
C265     C      0.849300000000     0.942100000000     0.900700000000     0          
C266     C      0.760300000000     0.953500000000     0.797400000000     0          
H267     H      0.773100000000     0.966500000000     0.771300000000     0          
C268     C      0.634000000000     0.921200000000     0.779500000000     0          
C269     C      0.587800000000     0.032500000000     0.808100000000     0          
H270     H      0.572800000000     0.014700000000     0.833800000000     0          
H271     H      0.635000000000     0.049200000000     0.810300000000     0          
H272     H      0.557800000000     0.070300000000     0.800100000000     0          
C273     C      0.789700000000     0.935500000000     0.871100000000     0          
C274     C      0.694600000000     0.927600000000     0.809000000000     0          
C275     C      0.724500000000     0.909700000000     0.882100000000     0          
H276     H      0.711900000000     0.896800000000     0.908200000000     0          
C277     C      0.680600000000     0.905700000000     0.848600000000     0          
H278     H      0.636800000000     0.886100000000     0.853100000000     0          
O279     O      0.092200000000     0.028800000000     0.890000000000     0          
O280     O      0.173900000000     0.061500000000     0.938900000000     0          
O281     O      0.084600000000     0.963000000000     0.963800000000     0          
C282     C      0.415600000000     0.025200000000     0.776700000000     0          
C283     C      0.196800000000     0.043500000000     0.831300000000     0          
H284     H      0.152600000000     0.024800000000     0.826900000000     0          
C285     C      0.150700000000     0.057900000000     0.900700000000     0          
C286     C      0.239700000000     0.046500000000     0.797400000000     0          
H287     H      0.226900000000     0.033500000000     0.771300000000     0          
C288     C      0.366000000000     0.078800000000     0.779500000000     0          
C289     C      0.412200000000     0.967500000000     0.808100000000     0          
H290     H      0.427200000000     0.985300000000     0.833800000000     0          
H291     H      0.365000000000     0.950800000000     0.810300000000     0          
H292     H      0.442200000000     0.929700000000     0.800100000000     0          
C293     C      0.210300000000     0.064500000000     0.871100000000     0          
C294     C      0.305400000000     0.072400000000     0.809000000000     0          
C295     C      0.275500000000     0.090300000000     0.882100000000     0          
H296     H      0.288100000000     0.103200000000     0.908200000000     0          
C297     C      0.319400000000     0.094300000000     0.848600000000     0          
H298     H      0.363200000000     0.113900000000     0.853100000000     0          
O299     O      0.971200000000     0.092200000000     0.890000000000     0          
O300     O      0.938500000000     0.173900000000     0.938900000000     0          
O301     O      0.037000000000     0.084600000000     0.963800000000     0          
C302     C      0.974800000000     0.415600000000     0.776700000000     0          
C303     C      0.956500000000     0.196800000000     0.831300000000     0          
H304     H      0.975200000000     0.152600000000     0.826900000000     0          
C305     C      0.942100000000     0.150700000000     0.900700000000     0          
C306     C      0.953500000000     0.239700000000     0.797400000000     0          
H307     H      0.966500000000     0.226900000000     0.771300000000     0          
C308     C      0.921200000000     0.366000000000     0.779500000000     0          
C309     C      0.032500000000     0.412200000000     0.808100000000     0          
H310     H      0.014700000000     0.427200000000     0.833800000000     0          
H311     H      0.049200000000     0.365000000000     0.810300000000     0          
H312     H      0.070300000000     0.442200000000     0.800100000000     0          
C313     C      0.935500000000     0.210300000000     0.871100000000     0          
C314     C      0.927600000000     0.305400000000     0.809000000000     0          
C315     C      0.909700000000     0.275500000000     0.882100000000     0          
H316     H      0.896800000000     0.288100000000     0.908200000000     0          
C317     C      0.905700000000     0.319400000000     0.848600000000     0          
H318     H      0.886100000000     0.363200000000     0.853100000000     0          
H319     H      0.821400000000     0.280700000000     0.771700000000     0          
H320     H      0.767900000000     0.334200000000     0.753500000000     0          
H321     H      0.813900000000     0.288200000000     0.724700000000     0          
O322     O      0.028800000000     0.907800000000     0.890000000000     0          
O323     O      0.061500000000     0.826100000000     0.938900000000     0          
O324     O      0.963000000000     0.915400000000     0.963800000000     0          
C325     C      0.025200000000     0.584400000000     0.776700000000     0          
C326     C      0.043500000000     0.803200000000     0.831300000000     0          
H327     H      0.024800000000     0.847400000000     0.826900000000     0          
C328     C      0.057900000000     0.849300000000     0.900700000000     0          
C329     C      0.046500000000     0.760300000000     0.797400000000     0          
H330     H      0.033500000000     0.773100000000     0.771300000000     0          
C331     C      0.078800000000     0.634000000000     0.779500000000     0          
C332     C      0.967500000000     0.587800000000     0.808100000000     0          
H333     H      0.985300000000     0.572800000000     0.833800000000     0          
H334     H      0.950800000000     0.635000000000     0.810300000000     0          
H335     H      0.929700000000     0.557800000000     0.800100000000     0          
C336     C      0.064500000000     0.789700000000     0.871100000000     0          
C337     C      0.072400000000     0.694600000000     0.809000000000     0          
C338     C      0.090300000000     0.724500000000     0.882100000000     0          
H339     H      0.103200000000     0.711900000000     0.908200000000     0          
C340     C      0.094300000000     0.680600000000     0.848600000000     0          
H341     H      0.113900000000     0.636800000000     0.853100000000     0          
H342     H      0.178600000000     0.719300000000     0.771700000000     0          
H343     H      0.232100000000     0.665800000000     0.753500000000     0          
H344     H      0.186100000000     0.711800000000     0.724700000000     0          
Zr345    Zr     0.454100000000     0.377300000000     0.500000000000     0          
Zr346    Zr     0.545900000000     0.622700000000     0.500000000000     0          
Zr347    Zr     0.622700000000     0.454100000000     0.500000000000     0          
Zr348    Zr     0.377300000000     0.545900000000     0.500000000000     0          
Zr349    Zr     0.045900000000     0.877300000000     0.000000000000     0          
Zr350    Zr     0.954100000000     0.122700000000     0.000000000000     0          
Zr351    Zr     0.877300000000     0.954100000000     0.000000000000     0          
Zr352    Zr     0.122700000000     0.045900000000     0.000000000000     0          
Zr353    Zr     0.500000000000     0.500000000000     0.426100000000     0          
Zr354    Zr     0.000000000000     0.000000000000     0.073900000000     0          
Zr355    Zr     0.500000000000     0.500000000000     0.573900000000     0          
Zr356    Zr     0.000000000000     0.000000000000     0.926100000000     0          
C357     C      0.027800000000     0.527800000000     0.250000000000     0          
C358     C      0.131600000000     0.631600000000     0.250000000000     0          
C359     C      0.187100000000     0.687100000000     0.250000000000     0          
C360     C      0.972200000000     0.472200000000     0.250000000000     0          
C361     C      0.868400000000     0.368400000000     0.250000000000     0          
C362     C      0.812900000000     0.312900000000     0.250000000000     0          
C363     C      0.472200000000     0.027800000000     0.250000000000     0          
C364     C      0.368400000000     0.131600000000     0.250000000000     0          
C365     C      0.312900000000     0.187100000000     0.250000000000     0          
C366     C      0.527800000000     0.972200000000     0.250000000000     0          
C367     C      0.631600000000     0.868400000000     0.250000000000     0          
C368     C      0.687100000000     0.812900000000     0.250000000000     0          
C369     C      0.972200000000     0.472200000000     0.750000000000     0          
C370     C      0.868400000000     0.368400000000     0.750000000000     0          
C371     C      0.812900000000     0.312900000000     0.750000000000     0          
C372     C      0.027800000000     0.527800000000     0.750000000000     0          
C373     C      0.131600000000     0.631600000000     0.750000000000     0          
C374     C      0.187100000000     0.687100000000     0.750000000000     0          
C375     C      0.527800000000     0.972200000000     0.750000000000     0          
C376     C      0.631600000000     0.868400000000     0.750000000000     0          
C377     C      0.687100000000     0.812900000000     0.750000000000     0          
C378     C      0.472200000000     0.027800000000     0.750000000000     0          
C379     C      0.368400000000     0.131600000000     0.750000000000     0          
C380     C      0.312900000000     0.187100000000     0.750000000000     0          


