data_NEVSUF09

_audit_creation_method RASPA-1.0
_audit_creation_date 2020-11-2
_audit_author_name 'Rocio Bueno-Perez'

_cell_length_a    19.037
_cell_length_b    19.037
_cell_length_c    33.159
_cell_angle_alpha 90
_cell_angle_beta  90
_cell_angle_gamma 90
_cell_volume      12017.1

_symmetry_cell_setting          triclinic
_symmetry_space_group_name_Hall 'P 1'
_symmetry_space_group_name_H-M  'P 1'
_symmetry_Int_Tables_number     1

_symmetry_equiv_pos_as_xyz 'x,y,z'

loop_
_atom_site_label
_atom_site_type_symbol
_atom_site_fract_x
_atom_site_fract_y
_atom_site_fract_z
_atom_site_charge
O1       O      0.971100000000     0.093600000000     0.108900000000     0          
O2       O      0.938700000000     0.175100000000     0.060200000000     0          
O3       O      0.039600000000     0.086000000000     0.035800000000     0          
C4       C      0.974100000000     0.416900000000     0.221900000000     0          
C5       C      0.958700000000     0.193800000000     0.170600000000     0          
H6       H      0.977200000000     0.149300000000     0.175400000000     0          
C7       C      0.941000000000     0.154000000000     0.099900000000     0          
C8       C      0.954200000000     0.240900000000     0.202500000000     0          
H9       H      0.967800000000     0.230400000000     0.228800000000     0          
C10      C      0.921900000000     0.365600000000     0.220400000000     0          
C11      C      0.031400000000     0.414400000000     0.190300000000     0          
H12      H      0.063800000000     0.452300000000     0.194700000000     0          
H13      H      0.055900000000     0.370500000000     0.192200000000     0          
H14      H      0.010900000000     0.418800000000     0.164000000000     0          
C15      C      0.936600000000     0.210400000000     0.131700000000     0          
C16      C      0.926900000000     0.306000000000     0.190500000000     0          
C17      C      0.910200000000     0.274800000000     0.118100000000     0          
H18      H      0.898400000000     0.285600000000     0.091600000000     0          
C19      C      0.904400000000     0.320200000000     0.151100000000     0          
H20      H      0.883800000000     0.363700000000     0.146500000000     0          
H21      H      0.822200000000     0.281100000000     0.228400000000     0          
H22      H      0.814400000000     0.288900000000     0.275300000000     0          
H23      H      0.768400000000     0.335000000000     0.246300000000     0          
O24      O      0.028900000000     0.906400000000     0.108900000000     0          
O25      O      0.061300000000     0.824900000000     0.060200000000     0          
O26      O      0.960400000000     0.914000000000     0.035800000000     0          
C27      C      0.025900000000     0.583100000000     0.221900000000     0          
C28      C      0.041300000000     0.806200000000     0.170600000000     0          
H29      H      0.022800000000     0.850700000000     0.175400000000     0          
C30      C      0.059000000000     0.846000000000     0.099900000000     0          
C31      C      0.045800000000     0.759100000000     0.202500000000     0          
H32      H      0.032200000000     0.769600000000     0.228800000000     0          
C33      C      0.078100000000     0.634400000000     0.220400000000     0          
C34      C      0.968600000000     0.585600000000     0.190300000000     0          
H35      H      0.936200000000     0.547700000000     0.194700000000     0          
H36      H      0.944100000000     0.629500000000     0.192200000000     0          
H37      H      0.989100000000     0.581200000000     0.164000000000     0          
C38      C      0.063400000000     0.789600000000     0.131700000000     0          
C39      C      0.073100000000     0.694000000000     0.190500000000     0          
C40      C      0.089800000000     0.725200000000     0.118100000000     0          
H41      H      0.101600000000     0.714400000000     0.091600000000     0          
C42      C      0.095600000000     0.679800000000     0.151100000000     0          
H43      H      0.116200000000     0.636300000000     0.146500000000     0          
O44      O      0.906400000000     0.971100000000     0.108900000000     0          
O45      O      0.824900000000     0.938700000000     0.060200000000     0          
O46      O      0.914000000000     0.039600000000     0.035800000000     0          
C47      C      0.583100000000     0.974100000000     0.221900000000     0          
C48      C      0.806200000000     0.958700000000     0.170600000000     0          
H49      H      0.850700000000     0.977200000000     0.175400000000     0          
C50      C      0.846000000000     0.941000000000     0.099900000000     0          
C51      C      0.759100000000     0.954200000000     0.202500000000     0          
H52      H      0.769600000000     0.967800000000     0.228800000000     0          
C53      C      0.634400000000     0.921900000000     0.220400000000     0          
C54      C      0.585600000000     0.031400000000     0.190300000000     0          
H55      H      0.547700000000     0.063800000000     0.194700000000     0          
H56      H      0.629500000000     0.055900000000     0.192200000000     0          
H57      H      0.581200000000     0.010900000000     0.164000000000     0          
C58      C      0.789600000000     0.936600000000     0.131700000000     0          
C59      C      0.694000000000     0.926900000000     0.190500000000     0          
C60      C      0.725200000000     0.910200000000     0.118100000000     0          
H61      H      0.714400000000     0.898400000000     0.091600000000     0          
C62      C      0.679800000000     0.904400000000     0.151100000000     0          
H63      H      0.636300000000     0.883800000000     0.146500000000     0          
O64      O      0.093600000000     0.028900000000     0.108900000000     0          
O65      O      0.175100000000     0.061300000000     0.060200000000     0          
O66      O      0.086000000000     0.960400000000     0.035800000000     0          
C67      C      0.416900000000     0.025900000000     0.221900000000     0          
C68      C      0.193800000000     0.041300000000     0.170600000000     0          
H69      H      0.149300000000     0.022800000000     0.175400000000     0          
C70      C      0.154000000000     0.059000000000     0.099900000000     0          
C71      C      0.240900000000     0.045800000000     0.202500000000     0          
H72      H      0.230400000000     0.032200000000     0.228800000000     0          
C73      C      0.365600000000     0.078100000000     0.220400000000     0          
C74      C      0.414400000000     0.968600000000     0.190300000000     0          
H75      H      0.452300000000     0.936200000000     0.194700000000     0          
H76      H      0.370500000000     0.944100000000     0.192200000000     0          
H77      H      0.418800000000     0.989100000000     0.164000000000     0          
C78      C      0.210400000000     0.063400000000     0.131700000000     0          
C79      C      0.306000000000     0.073100000000     0.190500000000     0          
C80      C      0.274800000000     0.089800000000     0.118100000000     0          
H81      H      0.285600000000     0.101600000000     0.091600000000     0          
C82      C      0.320200000000     0.095600000000     0.151100000000     0          
H83      H      0.363700000000     0.116200000000     0.146500000000     0          
O84      O      0.528900000000     0.593600000000     0.391100000000     0          
O85      O      0.561300000000     0.675100000000     0.439800000000     0          
O86      O      0.460400000000     0.586000000000     0.464200000000     0          
C87      C      0.525900000000     0.916900000000     0.278100000000     0          
C88      C      0.541300000000     0.693800000000     0.329400000000     0          
H89      H      0.522800000000     0.649300000000     0.324600000000     0          
C90      C      0.559000000000     0.654000000000     0.400100000000     0          
C91      C      0.545800000000     0.740900000000     0.297500000000     0          
H92      H      0.532200000000     0.730400000000     0.271200000000     0          
C93      C      0.578100000000     0.865600000000     0.279600000000     0          
C94      C      0.468600000000     0.914400000000     0.309700000000     0          
H95      H      0.436200000000     0.952300000000     0.305300000000     0          
H96      H      0.444100000000     0.870500000000     0.307800000000     0          
H97      H      0.489100000000     0.918800000000     0.336000000000     0          
C98      C      0.563400000000     0.710400000000     0.368300000000     0          
C99      C      0.573100000000     0.806000000000     0.309500000000     0          
C100     C      0.589800000000     0.774800000000     0.381900000000     0          
H101     H      0.601600000000     0.785600000000     0.408400000000     0          
C102     C      0.595600000000     0.820200000000     0.348900000000     0          
H103     H      0.616200000000     0.863700000000     0.353500000000     0          
H104     H      0.677800000000     0.781100000000     0.271600000000     0          
H105     H      0.685600000000     0.788900000000     0.224700000000     0          
H106     H      0.731600000000     0.835000000000     0.253700000000     0          
O107     O      0.471100000000     0.406400000000     0.391100000000     0          
O108     O      0.438700000000     0.324900000000     0.439800000000     0          
O109     O      0.539600000000     0.414000000000     0.464200000000     0          
C110     C      0.474100000000     0.083100000000     0.278100000000     0          
C111     C      0.458700000000     0.306200000000     0.329400000000     0          
H112     H      0.477200000000     0.350700000000     0.324600000000     0          
C113     C      0.441000000000     0.346000000000     0.400100000000     0          
C114     C      0.454200000000     0.259100000000     0.297500000000     0          
H115     H      0.467800000000     0.269600000000     0.271200000000     0          
C116     C      0.421900000000     0.134400000000     0.279600000000     0          
C117     C      0.531400000000     0.085600000000     0.309700000000     0          
H118     H      0.563800000000     0.047700000000     0.305300000000     0          
H119     H      0.555900000000     0.129500000000     0.307800000000     0          
H120     H      0.510900000000     0.081200000000     0.336000000000     0          
C121     C      0.436600000000     0.289600000000     0.368300000000     0          
C122     C      0.426900000000     0.194000000000     0.309500000000     0          
C123     C      0.410200000000     0.225200000000     0.381900000000     0          
H124     H      0.398400000000     0.214400000000     0.408400000000     0          
C125     C      0.404400000000     0.179800000000     0.348900000000     0          
H126     H      0.383800000000     0.136300000000     0.353500000000     0          
H127     H      0.322200000000     0.218900000000     0.271600000000     0          
H128     H      0.314400000000     0.211100000000     0.224700000000     0          
H129     H      0.268400000000     0.165000000000     0.253700000000     0          
O130     O      0.593600000000     0.471100000000     0.391100000000     0          
O131     O      0.675100000000     0.438700000000     0.439800000000     0          
O132     O      0.586000000000     0.539600000000     0.464200000000     0          
C133     C      0.916900000000     0.474100000000     0.278100000000     0          
C134     C      0.693800000000     0.458700000000     0.329400000000     0          
H135     H      0.649300000000     0.477200000000     0.324600000000     0          
C136     C      0.654000000000     0.441000000000     0.400100000000     0          
C137     C      0.740900000000     0.454200000000     0.297500000000     0          
H138     H      0.730400000000     0.467800000000     0.271200000000     0          
C139     C      0.865600000000     0.421900000000     0.279600000000     0          
C140     C      0.914400000000     0.531400000000     0.309700000000     0          
H141     H      0.952300000000     0.563800000000     0.305300000000     0          
H142     H      0.870500000000     0.555900000000     0.307800000000     0          
H143     H      0.918800000000     0.510900000000     0.336000000000     0          
C144     C      0.710400000000     0.436600000000     0.368300000000     0          
C145     C      0.806000000000     0.426900000000     0.309500000000     0          
C146     C      0.774800000000     0.410200000000     0.381900000000     0          
H147     H      0.785600000000     0.398400000000     0.408400000000     0          
C148     C      0.820200000000     0.404400000000     0.348900000000     0          
H149     H      0.863700000000     0.383800000000     0.353500000000     0          
O150     O      0.406400000000     0.528900000000     0.391100000000     0          
O151     O      0.324900000000     0.561300000000     0.439800000000     0          
O152     O      0.414000000000     0.460400000000     0.464200000000     0          
C153     C      0.083100000000     0.525900000000     0.278100000000     0          
C154     C      0.306200000000     0.541300000000     0.329400000000     0          
H155     H      0.350700000000     0.522800000000     0.324600000000     0          
C156     C      0.346000000000     0.559000000000     0.400100000000     0          
C157     C      0.259100000000     0.545800000000     0.297500000000     0          
H158     H      0.269600000000     0.532200000000     0.271200000000     0          
C159     C      0.134400000000     0.578100000000     0.279600000000     0          
C160     C      0.085600000000     0.468600000000     0.309700000000     0          
H161     H      0.047700000000     0.436200000000     0.305300000000     0          
H162     H      0.129500000000     0.444100000000     0.307800000000     0          
H163     H      0.081200000000     0.489100000000     0.336000000000     0          
C164     C      0.289600000000     0.563400000000     0.368300000000     0          
C165     C      0.194000000000     0.573100000000     0.309500000000     0          
C166     C      0.225200000000     0.589800000000     0.381900000000     0          
H167     H      0.214400000000     0.601600000000     0.408400000000     0          
C168     C      0.179800000000     0.595600000000     0.348900000000     0          
H169     H      0.136300000000     0.616200000000     0.353500000000     0          
H170     H      0.218900000000     0.677800000000     0.271600000000     0          
H171     H      0.211100000000     0.685600000000     0.224700000000     0          
H172     H      0.165000000000     0.731600000000     0.253700000000     0          
O173     O      0.028900000000     0.906400000000     0.891100000000     0          
O174     O      0.061300000000     0.824900000000     0.939800000000     0          
O175     O      0.960400000000     0.914000000000     0.964200000000     0          
C176     C      0.025900000000     0.583100000000     0.778100000000     0          
C177     C      0.041300000000     0.806200000000     0.829400000000     0          
H178     H      0.022800000000     0.850700000000     0.824600000000     0          
C179     C      0.059000000000     0.846000000000     0.900100000000     0          
C180     C      0.045800000000     0.759100000000     0.797500000000     0          
H181     H      0.032200000000     0.769600000000     0.771200000000     0          
C182     C      0.078100000000     0.634400000000     0.779600000000     0          
C183     C      0.968600000000     0.585600000000     0.809700000000     0          
H184     H      0.936200000000     0.547700000000     0.805300000000     0          
H185     H      0.944100000000     0.629500000000     0.807800000000     0          
H186     H      0.989100000000     0.581200000000     0.836000000000     0          
C187     C      0.063400000000     0.789600000000     0.868300000000     0          
C188     C      0.073100000000     0.694000000000     0.809500000000     0          
C189     C      0.089800000000     0.725200000000     0.881900000000     0          
H190     H      0.101600000000     0.714400000000     0.908400000000     0          
C191     C      0.095600000000     0.679800000000     0.848900000000     0          
H192     H      0.116200000000     0.636300000000     0.853500000000     0          
O193     O      0.971100000000     0.093600000000     0.891100000000     0          
O194     O      0.938700000000     0.175100000000     0.939800000000     0          
O195     O      0.039600000000     0.086000000000     0.964200000000     0          
C196     C      0.974100000000     0.416900000000     0.778100000000     0          
C197     C      0.958700000000     0.193800000000     0.829400000000     0          
H198     H      0.977200000000     0.149300000000     0.824600000000     0          
C199     C      0.941000000000     0.154000000000     0.900100000000     0          
C200     C      0.954200000000     0.240900000000     0.797500000000     0          
H201     H      0.967800000000     0.230400000000     0.771200000000     0          
C202     C      0.921900000000     0.365600000000     0.779600000000     0          
C203     C      0.031400000000     0.414400000000     0.809700000000     0          
H204     H      0.063800000000     0.452300000000     0.805300000000     0          
H205     H      0.055900000000     0.370500000000     0.807800000000     0          
H206     H      0.010900000000     0.418800000000     0.836000000000     0          
C207     C      0.936600000000     0.210400000000     0.868300000000     0          
C208     C      0.926900000000     0.306000000000     0.809500000000     0          
C209     C      0.910200000000     0.274800000000     0.881900000000     0          
H210     H      0.898400000000     0.285600000000     0.908400000000     0          
C211     C      0.904400000000     0.320200000000     0.848900000000     0          
H212     H      0.883800000000     0.363700000000     0.853500000000     0          
H213     H      0.822200000000     0.281100000000     0.771600000000     0          
H214     H      0.814400000000     0.288900000000     0.724700000000     0          
H215     H      0.768400000000     0.335000000000     0.753700000000     0          
O216     O      0.093600000000     0.028900000000     0.891100000000     0          
O217     O      0.175100000000     0.061300000000     0.939800000000     0          
O218     O      0.086000000000     0.960400000000     0.964200000000     0          
C219     C      0.416900000000     0.025900000000     0.778100000000     0          
C220     C      0.193800000000     0.041300000000     0.829400000000     0          
H221     H      0.149300000000     0.022800000000     0.824600000000     0          
C222     C      0.154000000000     0.059000000000     0.900100000000     0          
C223     C      0.240900000000     0.045800000000     0.797500000000     0          
H224     H      0.230400000000     0.032200000000     0.771200000000     0          
C225     C      0.365600000000     0.078100000000     0.779600000000     0          
C226     C      0.414400000000     0.968600000000     0.809700000000     0          
H227     H      0.452300000000     0.936200000000     0.805300000000     0          
H228     H      0.370500000000     0.944100000000     0.807800000000     0          
H229     H      0.418800000000     0.989100000000     0.836000000000     0          
C230     C      0.210400000000     0.063400000000     0.868300000000     0          
C231     C      0.306000000000     0.073100000000     0.809500000000     0          
C232     C      0.274800000000     0.089800000000     0.881900000000     0          
H233     H      0.285600000000     0.101600000000     0.908400000000     0          
C234     C      0.320200000000     0.095600000000     0.848900000000     0          
H235     H      0.363700000000     0.116200000000     0.853500000000     0          
H236     H      0.281100000000     0.177800000000     0.771600000000     0          
H237     H      0.288900000000     0.185600000000     0.724700000000     0          
H238     H      0.335000000000     0.231600000000     0.753700000000     0          
O239     O      0.906400000000     0.971100000000     0.891100000000     0          
O240     O      0.824900000000     0.938700000000     0.939800000000     0          
O241     O      0.914000000000     0.039600000000     0.964200000000     0          
C242     C      0.583100000000     0.974100000000     0.778100000000     0          
C243     C      0.806200000000     0.958700000000     0.829400000000     0          
H244     H      0.850700000000     0.977200000000     0.824600000000     0          
C245     C      0.846000000000     0.941000000000     0.900100000000     0          
C246     C      0.759100000000     0.954200000000     0.797500000000     0          
H247     H      0.769600000000     0.967800000000     0.771200000000     0          
C248     C      0.634400000000     0.921900000000     0.779600000000     0          
C249     C      0.585600000000     0.031400000000     0.809700000000     0          
H250     H      0.547700000000     0.063800000000     0.805300000000     0          
H251     H      0.629500000000     0.055900000000     0.807800000000     0          
H252     H      0.581200000000     0.010900000000     0.836000000000     0          
C253     C      0.789600000000     0.936600000000     0.868300000000     0          
C254     C      0.694000000000     0.926900000000     0.809500000000     0          
C255     C      0.725200000000     0.910200000000     0.881900000000     0          
H256     H      0.714400000000     0.898400000000     0.908400000000     0          
C257     C      0.679800000000     0.904400000000     0.848900000000     0          
H258     H      0.636300000000     0.883800000000     0.853500000000     0          
O259     O      0.471100000000     0.406400000000     0.608900000000     0          
O260     O      0.438700000000     0.324900000000     0.560200000000     0          
O261     O      0.539600000000     0.414000000000     0.535800000000     0          
C262     C      0.474100000000     0.083100000000     0.721900000000     0          
C263     C      0.458700000000     0.306200000000     0.670600000000     0          
H264     H      0.477200000000     0.350700000000     0.675400000000     0          
C265     C      0.441000000000     0.346000000000     0.599900000000     0          
C266     C      0.454200000000     0.259100000000     0.702500000000     0          
H267     H      0.467800000000     0.269600000000     0.728800000000     0          
C268     C      0.421900000000     0.134400000000     0.720400000000     0          
C269     C      0.531400000000     0.085600000000     0.690300000000     0          
H270     H      0.563800000000     0.047700000000     0.694700000000     0          
H271     H      0.555900000000     0.129500000000     0.692200000000     0          
H272     H      0.510900000000     0.081200000000     0.664000000000     0          
C273     C      0.436600000000     0.289600000000     0.631700000000     0          
C274     C      0.426900000000     0.194000000000     0.690500000000     0          
C275     C      0.410200000000     0.225200000000     0.618100000000     0          
H276     H      0.398400000000     0.214400000000     0.591600000000     0          
C277     C      0.404400000000     0.179800000000     0.651100000000     0          
H278     H      0.383800000000     0.136300000000     0.646500000000     0          
O279     O      0.528900000000     0.593600000000     0.608900000000     0          
O280     O      0.561300000000     0.675100000000     0.560200000000     0          
O281     O      0.460400000000     0.586000000000     0.535800000000     0          
C282     C      0.525900000000     0.916900000000     0.721900000000     0          
C283     C      0.541300000000     0.693800000000     0.670600000000     0          
H284     H      0.522800000000     0.649300000000     0.675400000000     0          
C285     C      0.559000000000     0.654000000000     0.599900000000     0          
C286     C      0.545800000000     0.740900000000     0.702500000000     0          
H287     H      0.532200000000     0.730400000000     0.728800000000     0          
C288     C      0.578100000000     0.865600000000     0.720400000000     0          
C289     C      0.468600000000     0.914400000000     0.690300000000     0          
H290     H      0.436200000000     0.952300000000     0.694700000000     0          
H291     H      0.444100000000     0.870500000000     0.692200000000     0          
H292     H      0.489100000000     0.918800000000     0.664000000000     0          
C293     C      0.563400000000     0.710400000000     0.631700000000     0          
C294     C      0.573100000000     0.806000000000     0.690500000000     0          
C295     C      0.589800000000     0.774800000000     0.618100000000     0          
H296     H      0.601600000000     0.785600000000     0.591600000000     0          
C297     C      0.595600000000     0.820200000000     0.651100000000     0          
H298     H      0.616200000000     0.863700000000     0.646500000000     0          
H299     H      0.677800000000     0.781100000000     0.728400000000     0          
H300     H      0.685600000000     0.788900000000     0.775300000000     0          
H301     H      0.731600000000     0.835000000000     0.746300000000     0          
O302     O      0.406400000000     0.528900000000     0.608900000000     0          
O303     O      0.324900000000     0.561300000000     0.560200000000     0          
O304     O      0.414000000000     0.460400000000     0.535800000000     0          
C305     C      0.083100000000     0.525900000000     0.721900000000     0          
C306     C      0.306200000000     0.541300000000     0.670600000000     0          
H307     H      0.350700000000     0.522800000000     0.675400000000     0          
C308     C      0.346000000000     0.559000000000     0.599900000000     0          
C309     C      0.259100000000     0.545800000000     0.702500000000     0          
H310     H      0.269600000000     0.532200000000     0.728800000000     0          
C311     C      0.134400000000     0.578100000000     0.720400000000     0          
C312     C      0.085600000000     0.468600000000     0.690300000000     0          
H313     H      0.047700000000     0.436200000000     0.694700000000     0          
H314     H      0.129500000000     0.444100000000     0.692200000000     0          
H315     H      0.081200000000     0.489100000000     0.664000000000     0          
C316     C      0.289600000000     0.563400000000     0.631700000000     0          
C317     C      0.194000000000     0.573100000000     0.690500000000     0          
C318     C      0.225200000000     0.589800000000     0.618100000000     0          
H319     H      0.214400000000     0.601600000000     0.591600000000     0          
C320     C      0.179800000000     0.595600000000     0.651100000000     0          
H321     H      0.136300000000     0.616200000000     0.646500000000     0          
H322     H      0.218900000000     0.677800000000     0.728400000000     0          
H323     H      0.211100000000     0.685600000000     0.775300000000     0          
H324     H      0.165000000000     0.731600000000     0.746300000000     0          
O325     O      0.593600000000     0.471100000000     0.608900000000     0          
O326     O      0.675100000000     0.438700000000     0.560200000000     0          
O327     O      0.586000000000     0.539600000000     0.535800000000     0          
C328     C      0.916900000000     0.474100000000     0.721900000000     0          
C329     C      0.693800000000     0.458700000000     0.670600000000     0          
H330     H      0.649300000000     0.477200000000     0.675400000000     0          
C331     C      0.654000000000     0.441000000000     0.599900000000     0          
C332     C      0.740900000000     0.454200000000     0.702500000000     0          
H333     H      0.730400000000     0.467800000000     0.728800000000     0          
C334     C      0.865600000000     0.421900000000     0.720400000000     0          
C335     C      0.914400000000     0.531400000000     0.690300000000     0          
H336     H      0.952300000000     0.563800000000     0.694700000000     0          
H337     H      0.870500000000     0.555900000000     0.692200000000     0          
H338     H      0.918800000000     0.510900000000     0.664000000000     0          
C339     C      0.710400000000     0.436600000000     0.631700000000     0          
C340     C      0.806000000000     0.426900000000     0.690500000000     0          
C341     C      0.774800000000     0.410200000000     0.618100000000     0          
H342     H      0.785600000000     0.398400000000     0.591600000000     0          
C343     C      0.820200000000     0.404400000000     0.651100000000     0          
H344     H      0.863700000000     0.383800000000     0.646500000000     0          
Zr345    Zr     0.123890000000     0.045400000000     0.000000000000     0          
Zr346    Zr     0.876110000000     0.954600000000     0.000000000000     0          
Zr347    Zr     0.954600000000     0.123890000000     0.000000000000     0          
Zr348    Zr     0.045400000000     0.876110000000     0.000000000000     0          
Zr349    Zr     0.376110000000     0.545400000000     0.500000000000     0          
Zr350    Zr     0.623890000000     0.454600000000     0.500000000000     0          
Zr351    Zr     0.545400000000     0.623890000000     0.500000000000     0          
Zr352    Zr     0.454600000000     0.376110000000     0.500000000000     0          
Zr353    Zr     0.000000000000     0.000000000000     0.073510000000     0          
Zr354    Zr     0.500000000000     0.500000000000     0.426490000000     0          
Zr355    Zr     0.000000000000     0.000000000000     0.926490000000     0          
Zr356    Zr     0.500000000000     0.500000000000     0.573510000000     0          
C357     C      0.972100000000     0.472100000000     0.250000000000     0          
C358     C      0.869400000000     0.369400000000     0.250000000000     0          
C359     C      0.813600000000     0.313600000000     0.250000000000     0          
C360     C      0.027900000000     0.527900000000     0.250000000000     0          
C361     C      0.130600000000     0.630600000000     0.250000000000     0          
C362     C      0.186400000000     0.686400000000     0.250000000000     0          
C363     C      0.527900000000     0.972100000000     0.250000000000     0          
C364     C      0.630600000000     0.869400000000     0.250000000000     0          
C365     C      0.686400000000     0.813600000000     0.250000000000     0          
C366     C      0.472100000000     0.027900000000     0.250000000000     0          
C367     C      0.369400000000     0.130600000000     0.250000000000     0          
C368     C      0.313600000000     0.186400000000     0.250000000000     0          
C369     C      0.027900000000     0.527900000000     0.750000000000     0          
C370     C      0.130600000000     0.630600000000     0.750000000000     0          
C371     C      0.186400000000     0.686400000000     0.750000000000     0          
C372     C      0.972100000000     0.472100000000     0.750000000000     0          
C373     C      0.869400000000     0.369400000000     0.750000000000     0          
C374     C      0.813600000000     0.313600000000     0.750000000000     0          
C375     C      0.472100000000     0.027900000000     0.750000000000     0          
C376     C      0.369400000000     0.130600000000     0.750000000000     0          
C377     C      0.313600000000     0.186400000000     0.750000000000     0          
C378     C      0.527900000000     0.972100000000     0.750000000000     0          
C379     C      0.630600000000     0.869400000000     0.750000000000     0          
C380     C      0.686400000000     0.813600000000     0.750000000000     0          


