data_NEVSUF10

_audit_creation_method RASPA-1.0
_audit_creation_date 2020-11-2
_audit_author_name 'Rocio Bueno-Perez'

_cell_length_a    18.9092
_cell_length_b    18.9092
_cell_length_c    33.2222
_cell_angle_alpha 90
_cell_angle_beta  90
_cell_angle_gamma 90
_cell_volume      11878.9

_symmetry_cell_setting          triclinic
_symmetry_space_group_name_Hall 'P 1'
_symmetry_space_group_name_H-M  'P 1'
_symmetry_Int_Tables_number     1

_symmetry_equiv_pos_as_xyz 'x,y,z'

loop_
_atom_site_label
_atom_site_type_symbol
_atom_site_fract_x
_atom_site_fract_y
_atom_site_fract_z
_atom_site_charge
O1       O      0.967000000000     0.091900000000     0.107450000000     0          
O2       O      0.934600000000     0.174300000000     0.060360000000     0          
O3       O      0.038200000000     0.086300000000     0.035710000000     0          
C4       C      0.974600000000     0.417300000000     0.221200000000     0          
C5       C      0.950200000000     0.190700000000     0.168600000000     0          
H6       H      0.965000000000     0.145100000000     0.174900000000     0          
C7       C      0.939800000000     0.152500000000     0.097700000000     0          
C8       C      0.943100000000     0.240900000000     0.199700000000     0          
H9       H      0.952000000000     0.228900000000     0.226400000000     0          
C10      C      0.920800000000     0.366700000000     0.221400000000     0          
C11      C      0.034300000000     0.414200000000     0.191000000000     0          
H12      H      0.019000000000     0.434500000000     0.166000000000     0          
H13      H      0.047800000000     0.365800000000     0.186800000000     0          
H14      H      0.074100000000     0.440300000000     0.201100000000     0          
C15      C      0.935700000000     0.207300000000     0.129600000000     0          
C16      C      0.921200000000     0.313100000000     0.188400000000     0          
C17      C      0.916200000000     0.273800000000     0.120200000000     0          
H18      H      0.907800000000     0.284900000000     0.093400000000     0          
C19      C      0.908300000000     0.325900000000     0.148700000000     0          
H20      H      0.893900000000     0.370800000000     0.140800000000     0          
H21      H      0.819700000000     0.278700000000     0.228300000000     0          
H22      H      0.812200000000     0.286100000000     0.275100000000     0          
H23      H      0.765600000000     0.332700000000     0.246600000000     0          
O24      O      0.033000000000     0.908100000000     0.107450000000     0          
O25      O      0.065400000000     0.825700000000     0.060360000000     0          
O26      O      0.961800000000     0.913700000000     0.035710000000     0          
C27      C      0.025400000000     0.582700000000     0.221200000000     0          
C28      C      0.049800000000     0.809300000000     0.168600000000     0          
H29      H      0.035000000000     0.854900000000     0.174900000000     0          
C30      C      0.060200000000     0.847500000000     0.097700000000     0          
C31      C      0.056900000000     0.759100000000     0.199700000000     0          
H32      H      0.048000000000     0.771100000000     0.226400000000     0          
C33      C      0.079200000000     0.633300000000     0.221400000000     0          
C34      C      0.965700000000     0.585800000000     0.191000000000     0          
H35      H      0.981000000000     0.565500000000     0.166000000000     0          
H36      H      0.952200000000     0.634200000000     0.186800000000     0          
H37      H      0.925900000000     0.559700000000     0.201100000000     0          
C38      C      0.064300000000     0.792700000000     0.129600000000     0          
C39      C      0.078800000000     0.686900000000     0.188400000000     0          
C40      C      0.083800000000     0.726200000000     0.120200000000     0          
H41      H      0.092200000000     0.715100000000     0.093400000000     0          
C42      C      0.091700000000     0.674100000000     0.148700000000     0          
H43      H      0.106100000000     0.629200000000     0.140800000000     0          
H44      H      0.180300000000     0.721300000000     0.228300000000     0          
H45      H      0.187800000000     0.713900000000     0.275100000000     0          
H46      H      0.234400000000     0.667300000000     0.246600000000     0          
O47      O      0.908100000000     0.967000000000     0.107450000000     0          
O48      O      0.825700000000     0.934600000000     0.060360000000     0          
O49      O      0.913700000000     0.038200000000     0.035710000000     0          
C50      C      0.582700000000     0.974600000000     0.221200000000     0          
C51      C      0.809300000000     0.950200000000     0.168600000000     0          
H52      H      0.854900000000     0.965000000000     0.174900000000     0          
C53      C      0.847500000000     0.939800000000     0.097700000000     0          
C54      C      0.759100000000     0.943100000000     0.199700000000     0          
H55      H      0.771100000000     0.952000000000     0.226400000000     0          
C56      C      0.633300000000     0.920800000000     0.221400000000     0          
C57      C      0.585800000000     0.034300000000     0.191000000000     0          
H58      H      0.565500000000     0.019000000000     0.166000000000     0          
H59      H      0.634200000000     0.047800000000     0.186800000000     0          
H60      H      0.559700000000     0.074100000000     0.201100000000     0          
C61      C      0.792700000000     0.935700000000     0.129600000000     0          
C62      C      0.686900000000     0.921200000000     0.188400000000     0          
C63      C      0.726200000000     0.916200000000     0.120200000000     0          
H64      H      0.715100000000     0.907800000000     0.093400000000     0          
C65      C      0.674100000000     0.908300000000     0.148700000000     0          
H66      H      0.629200000000     0.893900000000     0.140800000000     0          
H67      H      0.721300000000     0.819700000000     0.228300000000     0          
H68      H      0.713900000000     0.812200000000     0.275100000000     0          
H69      H      0.667300000000     0.765600000000     0.246600000000     0          
O70      O      0.091900000000     0.033000000000     0.107450000000     0          
O71      O      0.174300000000     0.065400000000     0.060360000000     0          
O72      O      0.086300000000     0.961800000000     0.035710000000     0          
C73      C      0.417300000000     0.025400000000     0.221200000000     0          
C74      C      0.190700000000     0.049800000000     0.168600000000     0          
H75      H      0.145100000000     0.035000000000     0.174900000000     0          
C76      C      0.152500000000     0.060200000000     0.097700000000     0          
C77      C      0.240900000000     0.056900000000     0.199700000000     0          
H78      H      0.228900000000     0.048000000000     0.226400000000     0          
C79      C      0.366700000000     0.079200000000     0.221400000000     0          
C80      C      0.414200000000     0.965700000000     0.191000000000     0          
H81      H      0.434500000000     0.981000000000     0.166000000000     0          
H82      H      0.365800000000     0.952200000000     0.186800000000     0          
H83      H      0.440300000000     0.925900000000     0.201100000000     0          
C84      C      0.207300000000     0.064300000000     0.129600000000     0          
C85      C      0.313100000000     0.078800000000     0.188400000000     0          
C86      C      0.273800000000     0.083800000000     0.120200000000     0          
H87      H      0.284900000000     0.092200000000     0.093400000000     0          
C88      C      0.325900000000     0.091700000000     0.148700000000     0          
H89      H      0.370800000000     0.106100000000     0.140800000000     0          
O90      O      0.533000000000     0.591900000000     0.392550000000     0          
O91      O      0.565400000000     0.674300000000     0.439640000000     0          
O92      O      0.461800000000     0.586300000000     0.464290000000     0          
C93      C      0.525400000000     0.917300000000     0.278800000000     0          
C94      C      0.549800000000     0.690700000000     0.331400000000     0          
H95      H      0.535000000000     0.645100000000     0.325100000000     0          
C96      C      0.560200000000     0.652500000000     0.402300000000     0          
C97      C      0.556900000000     0.740900000000     0.300300000000     0          
H98      H      0.548000000000     0.728900000000     0.273600000000     0          
C99      C      0.579200000000     0.866700000000     0.278600000000     0          
C100     C      0.465700000000     0.914200000000     0.309000000000     0          
H101     H      0.481000000000     0.934500000000     0.334000000000     0          
H102     H      0.452200000000     0.865800000000     0.313200000000     0          
H103     H      0.425900000000     0.940300000000     0.298900000000     0          
C104     C      0.564300000000     0.707300000000     0.370400000000     0          
C105     C      0.578800000000     0.813100000000     0.311600000000     0          
C106     C      0.583800000000     0.773800000000     0.379800000000     0          
H107     H      0.592200000000     0.784900000000     0.406600000000     0          
C108     C      0.591700000000     0.825900000000     0.351300000000     0          
H109     H      0.606100000000     0.870800000000     0.359200000000     0          
O110     O      0.467000000000     0.408100000000     0.392550000000     0          
O111     O      0.434600000000     0.325700000000     0.439640000000     0          
O112     O      0.538200000000     0.413700000000     0.464290000000     0          
C113     C      0.474600000000     0.082700000000     0.278800000000     0          
C114     C      0.450200000000     0.309300000000     0.331400000000     0          
H115     H      0.465000000000     0.354900000000     0.325100000000     0          
C116     C      0.439800000000     0.347500000000     0.402300000000     0          
C117     C      0.443100000000     0.259100000000     0.300300000000     0          
H118     H      0.452000000000     0.271100000000     0.273600000000     0          
C119     C      0.420800000000     0.133300000000     0.278600000000     0          
C120     C      0.534300000000     0.085800000000     0.309000000000     0          
H121     H      0.519000000000     0.065500000000     0.334000000000     0          
H122     H      0.547800000000     0.134200000000     0.313200000000     0          
H123     H      0.574100000000     0.059700000000     0.298900000000     0          
C124     C      0.435700000000     0.292700000000     0.370400000000     0          
C125     C      0.421200000000     0.186900000000     0.311600000000     0          
C126     C      0.416200000000     0.226200000000     0.379800000000     0          
H127     H      0.407800000000     0.215100000000     0.406600000000     0          
C128     C      0.408300000000     0.174100000000     0.351300000000     0          
H129     H      0.393900000000     0.129200000000     0.359200000000     0          
H130     H      0.319700000000     0.221300000000     0.271700000000     0          
H131     H      0.312200000000     0.213900000000     0.224900000000     0          
H132     H      0.265600000000     0.167300000000     0.253400000000     0          
O133     O      0.591900000000     0.467000000000     0.392550000000     0          
O134     O      0.674300000000     0.434600000000     0.439640000000     0          
O135     O      0.586300000000     0.538200000000     0.464290000000     0          
C136     C      0.917300000000     0.474600000000     0.278800000000     0          
C137     C      0.690700000000     0.450200000000     0.331400000000     0          
H138     H      0.645100000000     0.465000000000     0.325100000000     0          
C139     C      0.652500000000     0.439800000000     0.402300000000     0          
C140     C      0.740900000000     0.443100000000     0.300300000000     0          
H141     H      0.728900000000     0.452000000000     0.273600000000     0          
C142     C      0.866700000000     0.420800000000     0.278600000000     0          
C143     C      0.914200000000     0.534300000000     0.309000000000     0          
H144     H      0.934500000000     0.519000000000     0.334000000000     0          
H145     H      0.865800000000     0.547800000000     0.313200000000     0          
H146     H      0.940300000000     0.574100000000     0.298900000000     0          
C147     C      0.707300000000     0.435700000000     0.370400000000     0          
C148     C      0.813100000000     0.421200000000     0.311600000000     0          
C149     C      0.773800000000     0.416200000000     0.379800000000     0          
H150     H      0.784900000000     0.407800000000     0.406600000000     0          
C151     C      0.825900000000     0.408300000000     0.351300000000     0          
H152     H      0.870800000000     0.393900000000     0.359200000000     0          
O153     O      0.408100000000     0.533000000000     0.392550000000     0          
O154     O      0.325700000000     0.565400000000     0.439640000000     0          
O155     O      0.413700000000     0.461800000000     0.464290000000     0          
C156     C      0.082700000000     0.525400000000     0.278800000000     0          
C157     C      0.309300000000     0.549800000000     0.331400000000     0          
H158     H      0.354900000000     0.535000000000     0.325100000000     0          
C159     C      0.347500000000     0.560200000000     0.402300000000     0          
C160     C      0.259100000000     0.556900000000     0.300300000000     0          
H161     H      0.271100000000     0.548000000000     0.273600000000     0          
C162     C      0.133300000000     0.579200000000     0.278600000000     0          
C163     C      0.085800000000     0.465700000000     0.309000000000     0          
H164     H      0.065500000000     0.481000000000     0.334000000000     0          
H165     H      0.134200000000     0.452200000000     0.313200000000     0          
H166     H      0.059700000000     0.425900000000     0.298900000000     0          
C167     C      0.292700000000     0.564300000000     0.370400000000     0          
C168     C      0.186900000000     0.578800000000     0.311600000000     0          
C169     C      0.226200000000     0.583800000000     0.379800000000     0          
H170     H      0.215100000000     0.592200000000     0.406600000000     0          
C171     C      0.174100000000     0.591700000000     0.351300000000     0          
H172     H      0.129200000000     0.606100000000     0.359200000000     0          
O173     O      0.033000000000     0.908100000000     0.892550000000     0          
O174     O      0.065400000000     0.825700000000     0.939640000000     0          
O175     O      0.961800000000     0.913700000000     0.964290000000     0          
C176     C      0.025400000000     0.582700000000     0.778800000000     0          
C177     C      0.049800000000     0.809300000000     0.831400000000     0          
H178     H      0.035000000000     0.854900000000     0.825100000000     0          
C179     C      0.060200000000     0.847500000000     0.902300000000     0          
C180     C      0.056900000000     0.759100000000     0.800300000000     0          
H181     H      0.048000000000     0.771100000000     0.773600000000     0          
C182     C      0.079200000000     0.633300000000     0.778600000000     0          
C183     C      0.965700000000     0.585800000000     0.809000000000     0          
H184     H      0.981000000000     0.565500000000     0.834000000000     0          
H185     H      0.952200000000     0.634200000000     0.813200000000     0          
H186     H      0.925900000000     0.559700000000     0.798900000000     0          
C187     C      0.064300000000     0.792700000000     0.870400000000     0          
C188     C      0.078800000000     0.686900000000     0.811600000000     0          
C189     C      0.083800000000     0.726200000000     0.879800000000     0          
H190     H      0.092200000000     0.715100000000     0.906600000000     0          
C191     C      0.091700000000     0.674100000000     0.851300000000     0          
H192     H      0.106100000000     0.629200000000     0.859200000000     0          
H193     H      0.180300000000     0.721300000000     0.771700000000     0          
H194     H      0.187800000000     0.713900000000     0.724900000000     0          
H195     H      0.234400000000     0.667300000000     0.753400000000     0          
O196     O      0.967000000000     0.091900000000     0.892550000000     0          
O197     O      0.934600000000     0.174300000000     0.939640000000     0          
O198     O      0.038200000000     0.086300000000     0.964290000000     0          
C199     C      0.974600000000     0.417300000000     0.778800000000     0          
C200     C      0.950200000000     0.190700000000     0.831400000000     0          
H201     H      0.965000000000     0.145100000000     0.825100000000     0          
C202     C      0.939800000000     0.152500000000     0.902300000000     0          
C203     C      0.943100000000     0.240900000000     0.800300000000     0          
H204     H      0.952000000000     0.228900000000     0.773600000000     0          
C205     C      0.920800000000     0.366700000000     0.778600000000     0          
C206     C      0.034300000000     0.414200000000     0.809000000000     0          
H207     H      0.019000000000     0.434500000000     0.834000000000     0          
H208     H      0.047800000000     0.365800000000     0.813200000000     0          
H209     H      0.074100000000     0.440300000000     0.798900000000     0          
C210     C      0.935700000000     0.207300000000     0.870400000000     0          
C211     C      0.921200000000     0.313100000000     0.811600000000     0          
C212     C      0.916200000000     0.273800000000     0.879800000000     0          
H213     H      0.907800000000     0.284900000000     0.906600000000     0          
C214     C      0.908300000000     0.325900000000     0.851300000000     0          
H215     H      0.893900000000     0.370800000000     0.859200000000     0          
H216     H      0.819700000000     0.278700000000     0.771700000000     0          
H217     H      0.812200000000     0.286100000000     0.724900000000     0          
H218     H      0.765600000000     0.332700000000     0.753400000000     0          
O219     O      0.091900000000     0.033000000000     0.892550000000     0          
O220     O      0.174300000000     0.065400000000     0.939640000000     0          
O221     O      0.086300000000     0.961800000000     0.964290000000     0          
C222     C      0.417300000000     0.025400000000     0.778800000000     0          
C223     C      0.190700000000     0.049800000000     0.831400000000     0          
H224     H      0.145100000000     0.035000000000     0.825100000000     0          
C225     C      0.152500000000     0.060200000000     0.902300000000     0          
C226     C      0.240900000000     0.056900000000     0.800300000000     0          
H227     H      0.228900000000     0.048000000000     0.773600000000     0          
C228     C      0.366700000000     0.079200000000     0.778600000000     0          
C229     C      0.414200000000     0.965700000000     0.809000000000     0          
H230     H      0.434500000000     0.981000000000     0.834000000000     0          
H231     H      0.365800000000     0.952200000000     0.813200000000     0          
H232     H      0.440300000000     0.925900000000     0.798900000000     0          
C233     C      0.207300000000     0.064300000000     0.870400000000     0          
C234     C      0.313100000000     0.078800000000     0.811600000000     0          
C235     C      0.273800000000     0.083800000000     0.879800000000     0          
H236     H      0.284900000000     0.092200000000     0.906600000000     0          
C237     C      0.325900000000     0.091700000000     0.851300000000     0          
H238     H      0.370800000000     0.106100000000     0.859200000000     0          
H239     H      0.278700000000     0.180300000000     0.771700000000     0          
H240     H      0.286100000000     0.187800000000     0.724900000000     0          
H241     H      0.332700000000     0.234400000000     0.753400000000     0          
O242     O      0.908100000000     0.967000000000     0.892550000000     0          
O243     O      0.825700000000     0.934600000000     0.939640000000     0          
O244     O      0.913700000000     0.038200000000     0.964290000000     0          
C245     C      0.582700000000     0.974600000000     0.778800000000     0          
C246     C      0.809300000000     0.950200000000     0.831400000000     0          
H247     H      0.854900000000     0.965000000000     0.825100000000     0          
C248     C      0.847500000000     0.939800000000     0.902300000000     0          
C249     C      0.759100000000     0.943100000000     0.800300000000     0          
H250     H      0.771100000000     0.952000000000     0.773600000000     0          
C251     C      0.633300000000     0.920800000000     0.778600000000     0          
C252     C      0.585800000000     0.034300000000     0.809000000000     0          
H253     H      0.565500000000     0.019000000000     0.834000000000     0          
H254     H      0.634200000000     0.047800000000     0.813200000000     0          
H255     H      0.559700000000     0.074100000000     0.798900000000     0          
C256     C      0.792700000000     0.935700000000     0.870400000000     0          
C257     C      0.686900000000     0.921200000000     0.811600000000     0          
C258     C      0.726200000000     0.916200000000     0.879800000000     0          
H259     H      0.715100000000     0.907800000000     0.906600000000     0          
C260     C      0.674100000000     0.908300000000     0.851300000000     0          
H261     H      0.629200000000     0.893900000000     0.859200000000     0          
H262     H      0.721300000000     0.819700000000     0.771700000000     0          
H263     H      0.713900000000     0.812200000000     0.724900000000     0          
H264     H      0.667300000000     0.765600000000     0.753400000000     0          
O265     O      0.467000000000     0.408100000000     0.607450000000     0          
O266     O      0.434600000000     0.325700000000     0.560360000000     0          
O267     O      0.538200000000     0.413700000000     0.535710000000     0          
C268     C      0.474600000000     0.082700000000     0.721200000000     0          
C269     C      0.450200000000     0.309300000000     0.668600000000     0          
H270     H      0.465000000000     0.354900000000     0.674900000000     0          
C271     C      0.439800000000     0.347500000000     0.597700000000     0          
C272     C      0.443100000000     0.259100000000     0.699700000000     0          
H273     H      0.452000000000     0.271100000000     0.726400000000     0          
C274     C      0.420800000000     0.133300000000     0.721400000000     0          
C275     C      0.534300000000     0.085800000000     0.691000000000     0          
H276     H      0.519000000000     0.065500000000     0.666000000000     0          
H277     H      0.547800000000     0.134200000000     0.686800000000     0          
H278     H      0.574100000000     0.059700000000     0.701100000000     0          
C279     C      0.435700000000     0.292700000000     0.629600000000     0          
C280     C      0.421200000000     0.186900000000     0.688400000000     0          
C281     C      0.416200000000     0.226200000000     0.620200000000     0          
H282     H      0.407800000000     0.215100000000     0.593400000000     0          
C283     C      0.408300000000     0.174100000000     0.648700000000     0          
H284     H      0.393900000000     0.129200000000     0.640800000000     0          
O285     O      0.533000000000     0.591900000000     0.607450000000     0          
O286     O      0.565400000000     0.674300000000     0.560360000000     0          
O287     O      0.461800000000     0.586300000000     0.535710000000     0          
C288     C      0.525400000000     0.917300000000     0.721200000000     0          
C289     C      0.549800000000     0.690700000000     0.668600000000     0          
H290     H      0.535000000000     0.645100000000     0.674900000000     0          
C291     C      0.560200000000     0.652500000000     0.597700000000     0          
C292     C      0.556900000000     0.740900000000     0.699700000000     0          
H293     H      0.548000000000     0.728900000000     0.726400000000     0          
C294     C      0.579200000000     0.866700000000     0.721400000000     0          
C295     C      0.465700000000     0.914200000000     0.691000000000     0          
H296     H      0.481000000000     0.934500000000     0.666000000000     0          
H297     H      0.452200000000     0.865800000000     0.686800000000     0          
H298     H      0.425900000000     0.940300000000     0.701100000000     0          
C299     C      0.564300000000     0.707300000000     0.629600000000     0          
C300     C      0.578800000000     0.813100000000     0.688400000000     0          
C301     C      0.583800000000     0.773800000000     0.620200000000     0          
H302     H      0.592200000000     0.784900000000     0.593400000000     0          
C303     C      0.591700000000     0.825900000000     0.648700000000     0          
H304     H      0.606100000000     0.870800000000     0.640800000000     0          
O305     O      0.408100000000     0.533000000000     0.607450000000     0          
O306     O      0.325700000000     0.565400000000     0.560360000000     0          
O307     O      0.413700000000     0.461800000000     0.535710000000     0          
C308     C      0.082700000000     0.525400000000     0.721200000000     0          
C309     C      0.309300000000     0.549800000000     0.668600000000     0          
H310     H      0.354900000000     0.535000000000     0.674900000000     0          
C311     C      0.347500000000     0.560200000000     0.597700000000     0          
C312     C      0.259100000000     0.556900000000     0.699700000000     0          
H313     H      0.271100000000     0.548000000000     0.726400000000     0          
C314     C      0.133300000000     0.579200000000     0.721400000000     0          
C315     C      0.085800000000     0.465700000000     0.691000000000     0          
H316     H      0.065500000000     0.481000000000     0.666000000000     0          
H317     H      0.134200000000     0.452200000000     0.686800000000     0          
H318     H      0.059700000000     0.425900000000     0.701100000000     0          
C319     C      0.292700000000     0.564300000000     0.629600000000     0          
C320     C      0.186900000000     0.578800000000     0.688400000000     0          
C321     C      0.226200000000     0.583800000000     0.620200000000     0          
H322     H      0.215100000000     0.592200000000     0.593400000000     0          
C323     C      0.174100000000     0.591700000000     0.648700000000     0          
H324     H      0.129200000000     0.606100000000     0.640800000000     0          
O325     O      0.591900000000     0.467000000000     0.607450000000     0          
O326     O      0.674300000000     0.434600000000     0.560360000000     0          
O327     O      0.586300000000     0.538200000000     0.535710000000     0          
C328     C      0.917300000000     0.474600000000     0.721200000000     0          
C329     C      0.690700000000     0.450200000000     0.668600000000     0          
H330     H      0.645100000000     0.465000000000     0.674900000000     0          
C331     C      0.652500000000     0.439800000000     0.597700000000     0          
C332     C      0.740900000000     0.443100000000     0.699700000000     0          
H333     H      0.728900000000     0.452000000000     0.726400000000     0          
C334     C      0.866700000000     0.420800000000     0.721400000000     0          
C335     C      0.914200000000     0.534300000000     0.691000000000     0          
H336     H      0.934500000000     0.519000000000     0.666000000000     0          
H337     H      0.865800000000     0.547800000000     0.686800000000     0          
H338     H      0.940300000000     0.574100000000     0.701100000000     0          
C339     C      0.707300000000     0.435700000000     0.629600000000     0          
C340     C      0.813100000000     0.421200000000     0.688400000000     0          
C341     C      0.773800000000     0.416200000000     0.620200000000     0          
H342     H      0.784900000000     0.407800000000     0.593400000000     0          
C343     C      0.825900000000     0.408300000000     0.648700000000     0          
H344     H      0.870800000000     0.393900000000     0.640800000000     0          
Zr345    Zr     0.123400000000     0.047320000000     0.000000000000     0          
Zr346    Zr     0.876600000000     0.952680000000     0.000000000000     0          
Zr347    Zr     0.952680000000     0.123400000000     0.000000000000     0          
Zr348    Zr     0.047320000000     0.876600000000     0.000000000000     0          
Zr349    Zr     0.376600000000     0.547320000000     0.500000000000     0          
Zr350    Zr     0.623400000000     0.452680000000     0.500000000000     0          
Zr351    Zr     0.547320000000     0.623400000000     0.500000000000     0          
Zr352    Zr     0.452680000000     0.376600000000     0.500000000000     0          
Zr353    Zr     0.000000000000     0.000000000000     0.073520000000     0          
Zr354    Zr     0.500000000000     0.500000000000     0.426480000000     0          
Zr355    Zr     0.000000000000     0.000000000000     0.926480000000     0          
Zr356    Zr     0.500000000000     0.500000000000     0.573520000000     0          
C357     C      0.970900000000     0.470900000000     0.250000000000     0          
C358     C      0.867300000000     0.367300000000     0.250000000000     0          
C359     C      0.811100000000     0.311100000000     0.250000000000     0          
C360     C      0.029100000000     0.529100000000     0.250000000000     0          
C361     C      0.132700000000     0.632700000000     0.250000000000     0          
C362     C      0.188900000000     0.688900000000     0.250000000000     0          
C363     C      0.529100000000     0.970900000000     0.250000000000     0          
C364     C      0.632700000000     0.867300000000     0.250000000000     0          
C365     C      0.688900000000     0.811100000000     0.250000000000     0          
C366     C      0.470900000000     0.029100000000     0.250000000000     0          
C367     C      0.367300000000     0.132700000000     0.250000000000     0          
C368     C      0.311100000000     0.188900000000     0.250000000000     0          
C369     C      0.029100000000     0.529100000000     0.750000000000     0          
C370     C      0.132700000000     0.632700000000     0.750000000000     0          
C371     C      0.188900000000     0.688900000000     0.750000000000     0          
C372     C      0.970900000000     0.470900000000     0.750000000000     0          
C373     C      0.867300000000     0.367300000000     0.750000000000     0          
C374     C      0.811100000000     0.311100000000     0.750000000000     0          
C375     C      0.470900000000     0.029100000000     0.750000000000     0          
C376     C      0.367300000000     0.132700000000     0.750000000000     0          
C377     C      0.311100000000     0.188900000000     0.750000000000     0          
C378     C      0.529100000000     0.970900000000     0.750000000000     0          
C379     C      0.632700000000     0.867300000000     0.750000000000     0          
C380     C      0.688900000000     0.811100000000     0.750000000000     0          


