data_NIHFUI

_audit_creation_method RASPA-1.0
_audit_creation_date 2020-11-2
_audit_author_name 'Rocio Bueno-Perez'

_cell_length_a    21.531
_cell_length_b    35.053
_cell_length_c    15.0898
_cell_angle_alpha 90
_cell_angle_beta  90
_cell_angle_gamma 90
_cell_volume      11388.7

_symmetry_cell_setting          triclinic
_symmetry_space_group_name_Hall 'P 1'
_symmetry_space_group_name_H-M  'P 1'
_symmetry_Int_Tables_number     1

_symmetry_equiv_pos_as_xyz 'x,y,z'

loop_
_atom_site_label
_atom_site_type_symbol
_atom_site_fract_x
_atom_site_fract_y
_atom_site_fract_z
_atom_site_charge
O1       O      0.060800000000     0.101280000000     0.412200000000     0          
O2       O      0.114800000000     0.058260000000     0.333700000000     0          
C3       C      0.100900000000     0.092390000000     0.356400000000     0          
C4       C      0.182000000000     0.118700000000     0.253700000000     0          
H5       H      0.195200000000     0.093700000000     0.239000000000     0          
C6       C      0.225500000000     0.219300000000     0.188500000000     0          
C7       C      0.225400000000     0.220000000000     0.099500000000     0          
H8       H      0.207600000000     0.199100000000     0.068700000000     0          
C9       C      0.194800000000     0.185900000000     0.234400000000     0          
C10      C      0.133000000000     0.124250000000     0.312700000000     0          
C11      C      0.113500000000     0.161000000000     0.330800000000     0          
H12      H      0.080000000000     0.165400000000     0.370400000000     0          
C13      C      0.144000000000     0.192000000000     0.290000000000     0          
H14      H      0.129800000000     0.217300000000     0.300500000000     0          
C15      C      0.211300000000     0.149800000000     0.217100000000     0          
H16      H      0.244900000000     0.145500000000     0.177500000000     0          
O17      O      0.560800000000     0.601280000000     0.412200000000     0          
O18      O      0.614800000000     0.558260000000     0.333700000000     0          
C19      C      0.600900000000     0.592390000000     0.356400000000     0          
C20      C      0.682000000000     0.618700000000     0.253700000000     0          
H21      H      0.695200000000     0.593700000000     0.239000000000     0          
C22      C      0.725500000000     0.719300000000     0.188500000000     0          
C23      C      0.725400000000     0.720000000000     0.099500000000     0          
H24      H      0.707600000000     0.699100000000     0.068700000000     0          
C25      C      0.694800000000     0.685900000000     0.234400000000     0          
C26      C      0.633000000000     0.624250000000     0.312700000000     0          
C27      C      0.613500000000     0.661000000000     0.330800000000     0          
H28      H      0.580000000000     0.665400000000     0.370400000000     0          
C29      C      0.644000000000     0.692000000000     0.290000000000     0          
H30      H      0.629800000000     0.717300000000     0.300500000000     0          
C31      C      0.711300000000     0.649800000000     0.217100000000     0          
H32      H      0.744900000000     0.645500000000     0.177500000000     0          
O33      O      0.939200000000     0.898720000000     0.412200000000     0          
O34      O      0.885200000000     0.941740000000     0.333700000000     0          
C35      C      0.899100000000     0.907610000000     0.356400000000     0          
C36      C      0.818000000000     0.881300000000     0.253700000000     0          
H37      H      0.804800000000     0.906300000000     0.239000000000     0          
C38      C      0.774500000000     0.780700000000     0.188500000000     0          
C39      C      0.774600000000     0.780000000000     0.099500000000     0          
H40      H      0.792400000000     0.800900000000     0.068700000000     0          
C41      C      0.805200000000     0.814100000000     0.234400000000     0          
C42      C      0.867000000000     0.875750000000     0.312700000000     0          
C43      C      0.886500000000     0.839000000000     0.330800000000     0          
H44      H      0.920000000000     0.834600000000     0.370400000000     0          
C45      C      0.856000000000     0.808000000000     0.290000000000     0          
H46      H      0.870200000000     0.782700000000     0.300500000000     0          
C47      C      0.788700000000     0.850200000000     0.217100000000     0          
H48      H      0.755100000000     0.854500000000     0.177500000000     0          
O49      O      0.439200000000     0.398720000000     0.412200000000     0          
O50      O      0.385200000000     0.441740000000     0.333700000000     0          
C51      C      0.399100000000     0.407610000000     0.356400000000     0          
C52      C      0.318000000000     0.381300000000     0.253700000000     0          
H53      H      0.304800000000     0.406300000000     0.239000000000     0          
C54      C      0.274500000000     0.280700000000     0.188500000000     0          
C55      C      0.274600000000     0.280000000000     0.099500000000     0          
H56      H      0.292400000000     0.300900000000     0.068700000000     0          
C57      C      0.305200000000     0.314100000000     0.234400000000     0          
C58      C      0.367000000000     0.375750000000     0.312700000000     0          
C59      C      0.386500000000     0.339000000000     0.330800000000     0          
H60      H      0.420000000000     0.334600000000     0.370400000000     0          
C61      C      0.356000000000     0.308000000000     0.290000000000     0          
H62      H      0.370200000000     0.282700000000     0.300500000000     0          
C63      C      0.288700000000     0.350200000000     0.217100000000     0          
H64      H      0.255100000000     0.354500000000     0.177500000000     0          
O65      O      0.939200000000     0.101280000000     0.587800000000     0          
O66      O      0.885200000000     0.058260000000     0.666300000000     0          
C67      C      0.899100000000     0.092390000000     0.643600000000     0          
C68      C      0.818000000000     0.118700000000     0.746300000000     0          
H69      H      0.804800000000     0.093700000000     0.761000000000     0          
C70      C      0.774500000000     0.219300000000     0.811500000000     0          
C71      C      0.774600000000     0.220000000000     0.900500000000     0          
H72      H      0.792400000000     0.199100000000     0.931300000000     0          
C73      C      0.805200000000     0.185900000000     0.765600000000     0          
C74      C      0.867000000000     0.124250000000     0.687300000000     0          
C75      C      0.886500000000     0.161000000000     0.669200000000     0          
H76      H      0.920000000000     0.165400000000     0.629600000000     0          
C77      C      0.856000000000     0.192000000000     0.710000000000     0          
H78      H      0.870200000000     0.217300000000     0.699500000000     0          
C79      C      0.788700000000     0.149800000000     0.782900000000     0          
H80      H      0.755100000000     0.145500000000     0.822500000000     0          
O81      O      0.439200000000     0.601280000000     0.587800000000     0          
O82      O      0.385200000000     0.558260000000     0.666300000000     0          
C83      C      0.399100000000     0.592390000000     0.643600000000     0          
C84      C      0.318000000000     0.618700000000     0.746300000000     0          
H85      H      0.304800000000     0.593700000000     0.761000000000     0          
C86      C      0.274500000000     0.719300000000     0.811500000000     0          
C87      C      0.274600000000     0.720000000000     0.900500000000     0          
H88      H      0.292400000000     0.699100000000     0.931300000000     0          
C89      C      0.305200000000     0.685900000000     0.765600000000     0          
C90      C      0.367000000000     0.624250000000     0.687300000000     0          
C91      C      0.386500000000     0.661000000000     0.669200000000     0          
H92      H      0.420000000000     0.665400000000     0.629600000000     0          
C93      C      0.356000000000     0.692000000000     0.710000000000     0          
H94      H      0.370200000000     0.717300000000     0.699500000000     0          
C95      C      0.288700000000     0.649800000000     0.782900000000     0          
H96      H      0.255100000000     0.645500000000     0.822500000000     0          
O97      O      0.060800000000     0.898720000000     0.587800000000     0          
O98      O      0.114800000000     0.941740000000     0.666300000000     0          
C99      C      0.100900000000     0.907610000000     0.643600000000     0          
C100     C      0.182000000000     0.881300000000     0.746300000000     0          
H101     H      0.195200000000     0.906300000000     0.761000000000     0          
C102     C      0.225500000000     0.780700000000     0.811500000000     0          
C103     C      0.225400000000     0.780000000000     0.900500000000     0          
H104     H      0.207600000000     0.800900000000     0.931300000000     0          
C105     C      0.194800000000     0.814100000000     0.765600000000     0          
C106     C      0.133000000000     0.875750000000     0.687300000000     0          
C107     C      0.113500000000     0.839000000000     0.669200000000     0          
H108     H      0.080000000000     0.834600000000     0.629600000000     0          
C109     C      0.144000000000     0.808000000000     0.710000000000     0          
H110     H      0.129800000000     0.782700000000     0.699500000000     0          
C111     C      0.211300000000     0.850200000000     0.782900000000     0          
H112     H      0.244900000000     0.854500000000     0.822500000000     0          
O113     O      0.560800000000     0.398720000000     0.587800000000     0          
O114     O      0.614800000000     0.441740000000     0.666300000000     0          
C115     C      0.600900000000     0.407610000000     0.643600000000     0          
C116     C      0.682000000000     0.381300000000     0.746300000000     0          
H117     H      0.695200000000     0.406300000000     0.761000000000     0          
C118     C      0.725500000000     0.280700000000     0.811500000000     0          
C119     C      0.725400000000     0.280000000000     0.900500000000     0          
H120     H      0.707600000000     0.300900000000     0.931300000000     0          
C121     C      0.694800000000     0.314100000000     0.765600000000     0          
C122     C      0.633000000000     0.375750000000     0.687300000000     0          
C123     C      0.613500000000     0.339000000000     0.669200000000     0          
H124     H      0.580000000000     0.334600000000     0.629600000000     0          
C125     C      0.644000000000     0.308000000000     0.710000000000     0          
H126     H      0.629800000000     0.282700000000     0.699500000000     0          
C127     C      0.711300000000     0.350200000000     0.782900000000     0          
H128     H      0.744900000000     0.354500000000     0.822500000000     0          
O129     O      0.939200000000     0.898720000000     0.587800000000     0          
O130     O      0.885200000000     0.941740000000     0.666300000000     0          
C131     C      0.899100000000     0.907610000000     0.643600000000     0          
C132     C      0.818000000000     0.881300000000     0.746300000000     0          
H133     H      0.804800000000     0.906300000000     0.761000000000     0          
C134     C      0.774500000000     0.780700000000     0.811500000000     0          
C135     C      0.774600000000     0.780000000000     0.900500000000     0          
H136     H      0.792400000000     0.800900000000     0.931300000000     0          
C137     C      0.805200000000     0.814100000000     0.765600000000     0          
C138     C      0.867000000000     0.875750000000     0.687300000000     0          
C139     C      0.886500000000     0.839000000000     0.669200000000     0          
H140     H      0.920000000000     0.834600000000     0.629600000000     0          
C141     C      0.856000000000     0.808000000000     0.710000000000     0          
H142     H      0.870200000000     0.782700000000     0.699500000000     0          
C143     C      0.788700000000     0.850200000000     0.782900000000     0          
H144     H      0.755100000000     0.854500000000     0.822500000000     0          
O145     O      0.439200000000     0.398720000000     0.587800000000     0          
O146     O      0.385200000000     0.441740000000     0.666300000000     0          
C147     C      0.399100000000     0.407610000000     0.643600000000     0          
C148     C      0.318000000000     0.381300000000     0.746300000000     0          
H149     H      0.304800000000     0.406300000000     0.761000000000     0          
C150     C      0.274500000000     0.280700000000     0.811500000000     0          
C151     C      0.274600000000     0.280000000000     0.900500000000     0          
H152     H      0.292400000000     0.300900000000     0.931300000000     0          
C153     C      0.305200000000     0.314100000000     0.765600000000     0          
C154     C      0.367000000000     0.375750000000     0.687300000000     0          
C155     C      0.386500000000     0.339000000000     0.669200000000     0          
H156     H      0.420000000000     0.334600000000     0.629600000000     0          
C157     C      0.356000000000     0.308000000000     0.710000000000     0          
H158     H      0.370200000000     0.282700000000     0.699500000000     0          
C159     C      0.288700000000     0.350200000000     0.782900000000     0          
H160     H      0.255100000000     0.354500000000     0.822500000000     0          
O161     O      0.060800000000     0.101280000000     0.587800000000     0          
O162     O      0.114800000000     0.058260000000     0.666300000000     0          
C163     C      0.100900000000     0.092390000000     0.643600000000     0          
C164     C      0.182000000000     0.118700000000     0.746300000000     0          
H165     H      0.195200000000     0.093700000000     0.761000000000     0          
C166     C      0.225500000000     0.219300000000     0.811500000000     0          
C167     C      0.225400000000     0.220000000000     0.900500000000     0          
H168     H      0.207600000000     0.199100000000     0.931300000000     0          
C169     C      0.194800000000     0.185900000000     0.765600000000     0          
C170     C      0.133000000000     0.124250000000     0.687300000000     0          
C171     C      0.113500000000     0.161000000000     0.669200000000     0          
H172     H      0.080000000000     0.165400000000     0.629600000000     0          
C173     C      0.144000000000     0.192000000000     0.710000000000     0          
H174     H      0.129800000000     0.217300000000     0.699500000000     0          
C175     C      0.211300000000     0.149800000000     0.782900000000     0          
H176     H      0.244900000000     0.145500000000     0.822500000000     0          
O177     O      0.560800000000     0.601280000000     0.587800000000     0          
O178     O      0.614800000000     0.558260000000     0.666300000000     0          
C179     C      0.600900000000     0.592390000000     0.643600000000     0          
C180     C      0.682000000000     0.618700000000     0.746300000000     0          
H181     H      0.695200000000     0.593700000000     0.761000000000     0          
C182     C      0.725500000000     0.719300000000     0.811500000000     0          
C183     C      0.725400000000     0.720000000000     0.900500000000     0          
H184     H      0.707600000000     0.699100000000     0.931300000000     0          
C185     C      0.694800000000     0.685900000000     0.765600000000     0          
C186     C      0.633000000000     0.624250000000     0.687300000000     0          
C187     C      0.613500000000     0.661000000000     0.669200000000     0          
H188     H      0.580000000000     0.665400000000     0.629600000000     0          
C189     C      0.644000000000     0.692000000000     0.710000000000     0          
H190     H      0.629800000000     0.717300000000     0.699500000000     0          
C191     C      0.711300000000     0.649800000000     0.782900000000     0          
H192     H      0.744900000000     0.645500000000     0.822500000000     0          
O193     O      0.060800000000     0.898720000000     0.412200000000     0          
O194     O      0.114800000000     0.941740000000     0.333700000000     0          
C195     C      0.100900000000     0.907610000000     0.356400000000     0          
C196     C      0.182000000000     0.881300000000     0.253700000000     0          
H197     H      0.195200000000     0.906300000000     0.239000000000     0          
C198     C      0.225500000000     0.780700000000     0.188500000000     0          
C199     C      0.225400000000     0.780000000000     0.099500000000     0          
H200     H      0.207600000000     0.800900000000     0.068700000000     0          
C201     C      0.194800000000     0.814100000000     0.234400000000     0          
C202     C      0.133000000000     0.875750000000     0.312700000000     0          
C203     C      0.113500000000     0.839000000000     0.330800000000     0          
H204     H      0.080000000000     0.834600000000     0.370400000000     0          
C205     C      0.144000000000     0.808000000000     0.290000000000     0          
H206     H      0.129800000000     0.782700000000     0.300500000000     0          
C207     C      0.211300000000     0.850200000000     0.217100000000     0          
H208     H      0.244900000000     0.854500000000     0.177500000000     0          
O209     O      0.560800000000     0.398720000000     0.412200000000     0          
O210     O      0.614800000000     0.441740000000     0.333700000000     0          
C211     C      0.600900000000     0.407610000000     0.356400000000     0          
C212     C      0.682000000000     0.381300000000     0.253700000000     0          
H213     H      0.695200000000     0.406300000000     0.239000000000     0          
C214     C      0.725500000000     0.280700000000     0.188500000000     0          
C215     C      0.725400000000     0.280000000000     0.099500000000     0          
H216     H      0.707600000000     0.300900000000     0.068700000000     0          
C217     C      0.694800000000     0.314100000000     0.234400000000     0          
C218     C      0.633000000000     0.375750000000     0.312700000000     0          
C219     C      0.613500000000     0.339000000000     0.330800000000     0          
H220     H      0.580000000000     0.334600000000     0.370400000000     0          
C221     C      0.644000000000     0.308000000000     0.290000000000     0          
H222     H      0.629800000000     0.282700000000     0.300500000000     0          
C223     C      0.711300000000     0.350200000000     0.217100000000     0          
H224     H      0.744900000000     0.354500000000     0.177500000000     0          
O225     O      0.939200000000     0.101280000000     0.412200000000     0          
O226     O      0.885200000000     0.058260000000     0.333700000000     0          
C227     C      0.899100000000     0.092390000000     0.356400000000     0          
C228     C      0.818000000000     0.118700000000     0.253700000000     0          
H229     H      0.804800000000     0.093700000000     0.239000000000     0          
C230     C      0.774500000000     0.219300000000     0.188500000000     0          
C231     C      0.774600000000     0.220000000000     0.099500000000     0          
H232     H      0.792400000000     0.199100000000     0.068700000000     0          
C233     C      0.805200000000     0.185900000000     0.234400000000     0          
C234     C      0.867000000000     0.124250000000     0.312700000000     0          
C235     C      0.886500000000     0.161000000000     0.330800000000     0          
H236     H      0.920000000000     0.165400000000     0.370400000000     0          
C237     C      0.856000000000     0.192000000000     0.290000000000     0          
H238     H      0.870200000000     0.217300000000     0.300500000000     0          
C239     C      0.788700000000     0.149800000000     0.217100000000     0          
H240     H      0.755100000000     0.145500000000     0.177500000000     0          
O241     O      0.439200000000     0.601280000000     0.412200000000     0          
O242     O      0.385200000000     0.558260000000     0.333700000000     0          
C243     C      0.399100000000     0.592390000000     0.356400000000     0          
C244     C      0.318000000000     0.618700000000     0.253700000000     0          
H245     H      0.304800000000     0.593700000000     0.239000000000     0          
C246     C      0.274500000000     0.719300000000     0.188500000000     0          
C247     C      0.274600000000     0.720000000000     0.099500000000     0          
H248     H      0.292400000000     0.699100000000     0.068700000000     0          
C249     C      0.305200000000     0.685900000000     0.234400000000     0          
C250     C      0.367000000000     0.624250000000     0.312700000000     0          
C251     C      0.386500000000     0.661000000000     0.330800000000     0          
H252     H      0.420000000000     0.665400000000     0.370400000000     0          
C253     C      0.356000000000     0.692000000000     0.290000000000     0          
H254     H      0.370200000000     0.717300000000     0.300500000000     0          
C255     C      0.288700000000     0.649800000000     0.217100000000     0          
H256     H      0.255100000000     0.645500000000     0.177500000000     0          
Zr257    Zr     0.000000000000     0.069460000000     0.500000000000     0          
Zr258    Zr     0.500000000000     0.569460000000     0.500000000000     0          
Zr259    Zr     0.000000000000     0.930540000000     0.500000000000     0          
Zr260    Zr     0.500000000000     0.430540000000     0.500000000000     0          
Zr261    Zr     0.081890000000     0.000000000000     0.382060000000     0          
O262     O      0.073500000000     0.000000000000     0.238800000000     0          
C263     C      0.051120000000     0.000000000000     0.042200000000     0          
H264     H      0.089300000000     0.000000000000     0.073700000000     0          
Zr265    Zr     0.581890000000     0.500000000000     0.382060000000     0          
O266     O      0.573500000000     0.500000000000     0.238800000000     0          
C267     C      0.551120000000     0.500000000000     0.042200000000     0          
H268     H      0.589300000000     0.500000000000     0.073700000000     0          
Zr269    Zr     0.918110000000     0.000000000000     0.382060000000     0          
O270     O      0.926500000000     0.000000000000     0.238800000000     0          
C271     C      0.948880000000     0.000000000000     0.042200000000     0          
H272     H      0.910700000000     0.000000000000     0.073700000000     0          
Zr273    Zr     0.418110000000     0.500000000000     0.382060000000     0          
O274     O      0.426500000000     0.500000000000     0.238800000000     0          
C275     C      0.448880000000     0.500000000000     0.042200000000     0          
H276     H      0.410700000000     0.500000000000     0.073700000000     0          
Zr277    Zr     0.918110000000     0.000000000000     0.617940000000     0          
O278     O      0.926500000000     0.000000000000     0.761200000000     0          
C279     C      0.948880000000     0.000000000000     0.957800000000     0          
H280     H      0.910700000000     0.000000000000     0.926300000000     0          
Zr281    Zr     0.418110000000     0.500000000000     0.617940000000     0          
O282     O      0.426500000000     0.500000000000     0.761200000000     0          
C283     C      0.448880000000     0.500000000000     0.957800000000     0          
H284     H      0.410700000000     0.500000000000     0.926300000000     0          
Zr285    Zr     0.081890000000     0.000000000000     0.617940000000     0          
O286     O      0.073500000000     0.000000000000     0.761200000000     0          
C287     C      0.051120000000     0.000000000000     0.957800000000     0          
H288     H      0.089300000000     0.000000000000     0.926300000000     0          
Zr289    Zr     0.581890000000     0.500000000000     0.617940000000     0          
O290     O      0.573500000000     0.500000000000     0.761200000000     0          
C291     C      0.551120000000     0.500000000000     0.957800000000     0          
H292     H      0.589300000000     0.500000000000     0.926300000000     0          
O293     O      0.000000000000     0.034120000000     0.381600000000     0          
O294     O      0.500000000000     0.534120000000     0.381600000000     0          
O295     O      0.000000000000     0.965880000000     0.381600000000     0          
O296     O      0.500000000000     0.465880000000     0.381600000000     0          
O297     O      0.000000000000     0.034120000000     0.618400000000     0          
O298     O      0.500000000000     0.534120000000     0.618400000000     0          
O299     O      0.000000000000     0.965880000000     0.618400000000     0          
O300     O      0.500000000000     0.465880000000     0.618400000000     0          
O301     O      0.083400000000     0.033390000000     0.500000000000     0          
O302     O      0.583400000000     0.533390000000     0.500000000000     0          
O303     O      0.916600000000     0.966610000000     0.500000000000     0          
O304     O      0.416600000000     0.466610000000     0.500000000000     0          
O305     O      0.916600000000     0.033390000000     0.500000000000     0          
O306     O      0.416600000000     0.533390000000     0.500000000000     0          
O307     O      0.083400000000     0.966610000000     0.500000000000     0          
O308     O      0.583400000000     0.466610000000     0.500000000000     0          
C309     C      0.250000000000     0.250000000000     0.050400000000     0          
C310     C      0.250000000000     0.250000000000     0.235700000000     0          
O311     O      0.250000000000     0.250000000000     0.329100000000     0          
C312     C      0.750000000000     0.750000000000     0.050400000000     0          
C313     C      0.750000000000     0.750000000000     0.235700000000     0          
O314     O      0.750000000000     0.750000000000     0.329100000000     0          
C315     C      0.750000000000     0.250000000000     0.949600000000     0          
C316     C      0.750000000000     0.250000000000     0.764300000000     0          
O317     O      0.750000000000     0.250000000000     0.670900000000     0          
C318     C      0.250000000000     0.750000000000     0.949600000000     0          
C319     C      0.250000000000     0.750000000000     0.764300000000     0          
O320     O      0.250000000000     0.750000000000     0.670900000000     0          
C321     C      0.750000000000     0.750000000000     0.949600000000     0          
C322     C      0.750000000000     0.750000000000     0.764300000000     0          
O323     O      0.750000000000     0.750000000000     0.670900000000     0          
C324     C      0.250000000000     0.250000000000     0.949600000000     0          
C325     C      0.250000000000     0.250000000000     0.764300000000     0          
O326     O      0.250000000000     0.250000000000     0.670900000000     0          
C327     C      0.250000000000     0.750000000000     0.050400000000     0          
C328     C      0.250000000000     0.750000000000     0.235700000000     0          
O329     O      0.250000000000     0.750000000000     0.329100000000     0          
C330     C      0.750000000000     0.250000000000     0.050400000000     0          
C331     C      0.750000000000     0.250000000000     0.235700000000     0          
O332     O      0.750000000000     0.250000000000     0.329100000000     0          
C333     C      0.000000000000     0.000000000000     0.084400000000     0          
C334     C      0.000000000000     0.000000000000     0.183900000000     0          
C335     C      0.500000000000     0.500000000000     0.084400000000     0          
C336     C      0.500000000000     0.500000000000     0.183900000000     0          
C337     C      0.000000000000     0.000000000000     0.915600000000     0          
C338     C      0.000000000000     0.000000000000     0.816100000000     0          
C339     C      0.500000000000     0.500000000000     0.915600000000     0          
C340     C      0.500000000000     0.500000000000     0.816100000000     0          
H341     H      0.284370000000     0.271110000000     0.353620000000     0          
H342     H      0.784370000000     0.271110000000     0.646380000000     0          
H343     H      0.284370000000     0.271110000000     0.646380000000     0          
H344     H      0.784370000000     0.271110000000     0.353620000000     0          
H345     H      0.750000000000     0.720140000000     0.353620000000     0          
H346     H      0.250000000000     0.779860000000     0.646380000000     0          
H347     H      0.750000000000     0.779860000000     0.646380000000     0          
H348     H      0.250000000000     0.720140000000     0.353620000000     0          


