data_NIHFOC

_audit_creation_method RASPA-1.0
_audit_creation_date 2020-11-2
_audit_author_name 'Rocio Bueno-Perez'

_cell_length_a    23.1663
_cell_length_b    34.0796
_cell_length_c    14.9174
_cell_angle_alpha 90
_cell_angle_beta  90
_cell_angle_gamma 90
_cell_volume      11777.3

_symmetry_cell_setting          triclinic
_symmetry_space_group_name_Hall 'P 1'
_symmetry_space_group_name_H-M  'P 1'
_symmetry_Int_Tables_number     1

_symmetry_equiv_pos_as_xyz 'x,y,z'

loop_
_atom_site_label
_atom_site_type_symbol
_atom_site_fract_x
_atom_site_fract_y
_atom_site_fract_z
_atom_site_charge
O1       O      0.442960000000     0.104750000000     0.410900000000     0          
O2       O      0.391500000000     0.058320000000     0.334100000000     0          
C3       C      0.369800000000     0.125910000000     0.312600000000     0          
C4       C      0.404900000000     0.093270000000     0.356000000000     0          
C5       C      0.329700000000     0.118190000000     0.250600000000     0          
H6       H      0.322700000000     0.091800000000     0.233300000000     0          
C7       C      0.379400000000     0.164260000000     0.339700000000     0          
H8       H      0.408300000000     0.170400000000     0.382600000000     0          
C9       C      0.273800000000     0.218400000000     0.191900000000     0          
C10      C      0.273800000000     0.219000000000     0.097400000000     0          
H11      H      0.290700000000     0.197600000000     0.066000000000     0          
C12      C      0.345200000000     0.193600000000     0.301900000000     0          
H13      H      0.349200000000     0.219700000000     0.323300000000     0          
C14      C      0.307400000000     0.186490000000     0.237400000000     0          
C15      C      0.297400000000     0.148800000000     0.210400000000     0          
H16      H      0.269400000000     0.143200000000     0.165600000000     0          
H17      H      0.228400000000     0.232000000000     0.345900000000     0          
O18      O      0.942960000000     0.604750000000     0.410900000000     0          
O19      O      0.891500000000     0.558320000000     0.334100000000     0          
C20      C      0.869800000000     0.625910000000     0.312600000000     0          
C21      C      0.904900000000     0.593270000000     0.356000000000     0          
C22      C      0.829700000000     0.618190000000     0.250600000000     0          
H23      H      0.822700000000     0.591800000000     0.233300000000     0          
C24      C      0.879400000000     0.664260000000     0.339700000000     0          
H25      H      0.908300000000     0.670400000000     0.382600000000     0          
C26      C      0.773800000000     0.718400000000     0.191900000000     0          
C27      C      0.773800000000     0.719000000000     0.097400000000     0          
H28      H      0.790700000000     0.697600000000     0.066000000000     0          
C29      C      0.845200000000     0.693600000000     0.301900000000     0          
H30      H      0.849200000000     0.719700000000     0.323300000000     0          
C31      C      0.807400000000     0.686490000000     0.237400000000     0          
C32      C      0.797400000000     0.648800000000     0.210400000000     0          
H33      H      0.769400000000     0.643200000000     0.165600000000     0          
H34      H      0.728400000000     0.732000000000     0.345900000000     0          
O35      O      0.557040000000     0.895250000000     0.410900000000     0          
O36      O      0.608500000000     0.941680000000     0.334100000000     0          
C37      C      0.630200000000     0.874090000000     0.312600000000     0          
C38      C      0.595100000000     0.906730000000     0.356000000000     0          
C39      C      0.670300000000     0.881810000000     0.250600000000     0          
H40      H      0.677300000000     0.908200000000     0.233300000000     0          
C41      C      0.620600000000     0.835740000000     0.339700000000     0          
H42      H      0.591700000000     0.829600000000     0.382600000000     0          
C43      C      0.726200000000     0.781600000000     0.191900000000     0          
C44      C      0.726200000000     0.781000000000     0.097400000000     0          
H45      H      0.709300000000     0.802400000000     0.066000000000     0          
C46      C      0.654800000000     0.806400000000     0.301900000000     0          
H47      H      0.650800000000     0.780300000000     0.323300000000     0          
C48      C      0.692600000000     0.813510000000     0.237400000000     0          
C49      C      0.702600000000     0.851200000000     0.210400000000     0          
H50      H      0.730600000000     0.856800000000     0.165600000000     0          
C51      C      0.969700000000     0.967800000000     0.546800000000     0          
O52      O      0.057040000000     0.395250000000     0.410900000000     0          
O53      O      0.108500000000     0.441680000000     0.334100000000     0          
C54      C      0.130200000000     0.374090000000     0.312600000000     0          
C55      C      0.095100000000     0.406730000000     0.356000000000     0          
C56      C      0.170300000000     0.381810000000     0.250600000000     0          
H57      H      0.177300000000     0.408200000000     0.233300000000     0          
C58      C      0.120600000000     0.335740000000     0.339700000000     0          
H59      H      0.091700000000     0.329600000000     0.382600000000     0          
C60      C      0.226200000000     0.281600000000     0.191900000000     0          
C61      C      0.226200000000     0.281000000000     0.097400000000     0          
H62      H      0.209300000000     0.302400000000     0.066000000000     0          
C63      C      0.154800000000     0.306400000000     0.301900000000     0          
H64      H      0.150800000000     0.280300000000     0.323300000000     0          
C65      C      0.192600000000     0.313510000000     0.237400000000     0          
C66      C      0.202600000000     0.351200000000     0.210400000000     0          
H67      H      0.230600000000     0.356800000000     0.165600000000     0          
C68      C      0.469700000000     0.467800000000     0.546800000000     0          
O69      O      0.557040000000     0.104750000000     0.589100000000     0          
O70      O      0.608500000000     0.058320000000     0.665900000000     0          
C71      C      0.630200000000     0.125910000000     0.687400000000     0          
C72      C      0.595100000000     0.093270000000     0.644000000000     0          
C73      C      0.670300000000     0.118190000000     0.749400000000     0          
H74      H      0.677300000000     0.091800000000     0.766700000000     0          
C75      C      0.620600000000     0.164260000000     0.660300000000     0          
H76      H      0.591700000000     0.170400000000     0.617400000000     0          
C77      C      0.726200000000     0.218400000000     0.808100000000     0          
C78      C      0.726200000000     0.219000000000     0.902600000000     0          
H79      H      0.709300000000     0.197600000000     0.934000000000     0          
C80      C      0.654800000000     0.193600000000     0.698100000000     0          
H81      H      0.650800000000     0.219700000000     0.676700000000     0          
C82      C      0.692600000000     0.186490000000     0.762600000000     0          
C83      C      0.702600000000     0.148800000000     0.789600000000     0          
H84      H      0.730600000000     0.143200000000     0.834400000000     0          
C85      C      0.969700000000     0.032200000000     0.453200000000     0          
O86      O      0.057040000000     0.604750000000     0.589100000000     0          
O87      O      0.108500000000     0.558320000000     0.665900000000     0          
C88      C      0.130200000000     0.625910000000     0.687400000000     0          
C89      C      0.095100000000     0.593270000000     0.644000000000     0          
C90      C      0.170300000000     0.618190000000     0.749400000000     0          
H91      H      0.177300000000     0.591800000000     0.766700000000     0          
C92      C      0.120600000000     0.664260000000     0.660300000000     0          
H93      H      0.091700000000     0.670400000000     0.617400000000     0          
C94      C      0.226200000000     0.718400000000     0.808100000000     0          
C95      C      0.226200000000     0.719000000000     0.902600000000     0          
H96      H      0.209300000000     0.697600000000     0.934000000000     0          
C97      C      0.154800000000     0.693600000000     0.698100000000     0          
H98      H      0.150800000000     0.719700000000     0.676700000000     0          
C99      C      0.192600000000     0.686490000000     0.762600000000     0          
C100     C      0.202600000000     0.648800000000     0.789600000000     0          
H101     H      0.230600000000     0.643200000000     0.834400000000     0          
C102     C      0.469700000000     0.532200000000     0.453200000000     0          
H103     H      0.271600000000     0.732000000000     0.654100000000     0          
O104     O      0.442960000000     0.895250000000     0.589100000000     0          
O105     O      0.391500000000     0.941680000000     0.665900000000     0          
C106     C      0.369800000000     0.874090000000     0.687400000000     0          
C107     C      0.404900000000     0.906730000000     0.644000000000     0          
C108     C      0.329700000000     0.881810000000     0.749400000000     0          
H109     H      0.322700000000     0.908200000000     0.766700000000     0          
C110     C      0.379400000000     0.835740000000     0.660300000000     0          
H111     H      0.408300000000     0.829600000000     0.617400000000     0          
C112     C      0.273800000000     0.781600000000     0.808100000000     0          
C113     C      0.273800000000     0.781000000000     0.902600000000     0          
H114     H      0.290700000000     0.802400000000     0.934000000000     0          
C115     C      0.345200000000     0.806400000000     0.698100000000     0          
H116     H      0.349200000000     0.780300000000     0.676700000000     0          
C117     C      0.307400000000     0.813510000000     0.762600000000     0          
C118     C      0.297400000000     0.851200000000     0.789600000000     0          
H119     H      0.269400000000     0.856800000000     0.834400000000     0          
O120     O      0.942960000000     0.395250000000     0.589100000000     0          
O121     O      0.891500000000     0.441680000000     0.665900000000     0          
C122     C      0.869800000000     0.374090000000     0.687400000000     0          
C123     C      0.904900000000     0.406730000000     0.644000000000     0          
C124     C      0.829700000000     0.381810000000     0.749400000000     0          
H125     H      0.822700000000     0.408200000000     0.766700000000     0          
C126     C      0.879400000000     0.335740000000     0.660300000000     0          
H127     H      0.908300000000     0.329600000000     0.617400000000     0          
C128     C      0.773800000000     0.281600000000     0.808100000000     0          
C129     C      0.773800000000     0.281000000000     0.902600000000     0          
H130     H      0.790700000000     0.302400000000     0.934000000000     0          
C131     C      0.845200000000     0.306400000000     0.698100000000     0          
H132     H      0.849200000000     0.280300000000     0.676700000000     0          
C133     C      0.807400000000     0.313510000000     0.762600000000     0          
C134     C      0.797400000000     0.351200000000     0.789600000000     0          
H135     H      0.769400000000     0.356800000000     0.834400000000     0          
H136     H      0.728400000000     0.268000000000     0.654100000000     0          
O137     O      0.557040000000     0.895250000000     0.589100000000     0          
O138     O      0.608500000000     0.941680000000     0.665900000000     0          
C139     C      0.630200000000     0.874090000000     0.687400000000     0          
C140     C      0.595100000000     0.906730000000     0.644000000000     0          
C141     C      0.670300000000     0.881810000000     0.749400000000     0          
H142     H      0.677300000000     0.908200000000     0.766700000000     0          
C143     C      0.620600000000     0.835740000000     0.660300000000     0          
H144     H      0.591700000000     0.829600000000     0.617400000000     0          
C145     C      0.726200000000     0.781600000000     0.808100000000     0          
C146     C      0.726200000000     0.781000000000     0.902600000000     0          
H147     H      0.709300000000     0.802400000000     0.934000000000     0          
C148     C      0.654800000000     0.806400000000     0.698100000000     0          
H149     H      0.650800000000     0.780300000000     0.676700000000     0          
C150     C      0.692600000000     0.813510000000     0.762600000000     0          
C151     C      0.702600000000     0.851200000000     0.789600000000     0          
H152     H      0.730600000000     0.856800000000     0.834400000000     0          
O153     O      0.057040000000     0.395250000000     0.589100000000     0          
O154     O      0.108500000000     0.441680000000     0.665900000000     0          
C155     C      0.130200000000     0.374090000000     0.687400000000     0          
C156     C      0.095100000000     0.406730000000     0.644000000000     0          
C157     C      0.170300000000     0.381810000000     0.749400000000     0          
H158     H      0.177300000000     0.408200000000     0.766700000000     0          
C159     C      0.120600000000     0.335740000000     0.660300000000     0          
H160     H      0.091700000000     0.329600000000     0.617400000000     0          
C161     C      0.226200000000     0.281600000000     0.808100000000     0          
C162     C      0.226200000000     0.281000000000     0.902600000000     0          
H163     H      0.209300000000     0.302400000000     0.934000000000     0          
C164     C      0.154800000000     0.306400000000     0.698100000000     0          
H165     H      0.150800000000     0.280300000000     0.676700000000     0          
C166     C      0.192600000000     0.313510000000     0.762600000000     0          
C167     C      0.202600000000     0.351200000000     0.789600000000     0          
H168     H      0.230600000000     0.356800000000     0.834400000000     0          
H169     H      0.271600000000     0.268000000000     0.654100000000     0          
O170     O      0.442960000000     0.104750000000     0.589100000000     0          
O171     O      0.391500000000     0.058320000000     0.665900000000     0          
C172     C      0.369800000000     0.125910000000     0.687400000000     0          
C173     C      0.404900000000     0.093270000000     0.644000000000     0          
C174     C      0.329700000000     0.118190000000     0.749400000000     0          
H175     H      0.322700000000     0.091800000000     0.766700000000     0          
C176     C      0.379400000000     0.164260000000     0.660300000000     0          
H177     H      0.408300000000     0.170400000000     0.617400000000     0          
C178     C      0.273800000000     0.218400000000     0.808100000000     0          
C179     C      0.273800000000     0.219000000000     0.902600000000     0          
H180     H      0.290700000000     0.197600000000     0.934000000000     0          
C181     C      0.345200000000     0.193600000000     0.698100000000     0          
H182     H      0.349200000000     0.219700000000     0.676700000000     0          
C183     C      0.307400000000     0.186490000000     0.762600000000     0          
C184     C      0.297400000000     0.148800000000     0.789600000000     0          
H185     H      0.269400000000     0.143200000000     0.834400000000     0          
C186     C      0.030300000000     0.032200000000     0.453200000000     0          
O187     O      0.942960000000     0.604750000000     0.589100000000     0          
O188     O      0.891500000000     0.558320000000     0.665900000000     0          
C189     C      0.869800000000     0.625910000000     0.687400000000     0          
C190     C      0.904900000000     0.593270000000     0.644000000000     0          
C191     C      0.829700000000     0.618190000000     0.749400000000     0          
H192     H      0.822700000000     0.591800000000     0.766700000000     0          
C193     C      0.879400000000     0.664260000000     0.660300000000     0          
H194     H      0.908300000000     0.670400000000     0.617400000000     0          
C195     C      0.773800000000     0.718400000000     0.808100000000     0          
C196     C      0.773800000000     0.719000000000     0.902600000000     0          
H197     H      0.790700000000     0.697600000000     0.934000000000     0          
C198     C      0.845200000000     0.693600000000     0.698100000000     0          
H199     H      0.849200000000     0.719700000000     0.676700000000     0          
C200     C      0.807400000000     0.686490000000     0.762600000000     0          
C201     C      0.797400000000     0.648800000000     0.789600000000     0          
H202     H      0.769400000000     0.643200000000     0.834400000000     0          
C203     C      0.530300000000     0.532200000000     0.453200000000     0          
H204     H      0.728400000000     0.732000000000     0.654100000000     0          
O205     O      0.442960000000     0.895250000000     0.410900000000     0          
O206     O      0.391500000000     0.941680000000     0.334100000000     0          
C207     C      0.369800000000     0.874090000000     0.312600000000     0          
C208     C      0.404900000000     0.906730000000     0.356000000000     0          
C209     C      0.329700000000     0.881810000000     0.250600000000     0          
H210     H      0.322700000000     0.908200000000     0.233300000000     0          
C211     C      0.379400000000     0.835740000000     0.339700000000     0          
H212     H      0.408300000000     0.829600000000     0.382600000000     0          
C213     C      0.273800000000     0.781600000000     0.191900000000     0          
C214     C      0.273800000000     0.781000000000     0.097400000000     0          
H215     H      0.290700000000     0.802400000000     0.066000000000     0          
C216     C      0.345200000000     0.806400000000     0.301900000000     0          
H217     H      0.349200000000     0.780300000000     0.323300000000     0          
C218     C      0.307400000000     0.813510000000     0.237400000000     0          
C219     C      0.297400000000     0.851200000000     0.210400000000     0          
H220     H      0.269400000000     0.856800000000     0.165600000000     0          
C221     C      0.030300000000     0.967800000000     0.546800000000     0          
O222     O      0.942960000000     0.395250000000     0.410900000000     0          
O223     O      0.891500000000     0.441680000000     0.334100000000     0          
C224     C      0.869800000000     0.374090000000     0.312600000000     0          
C225     C      0.904900000000     0.406730000000     0.356000000000     0          
C226     C      0.829700000000     0.381810000000     0.250600000000     0          
H227     H      0.822700000000     0.408200000000     0.233300000000     0          
C228     C      0.879400000000     0.335740000000     0.339700000000     0          
H229     H      0.908300000000     0.329600000000     0.382600000000     0          
C230     C      0.773800000000     0.281600000000     0.191900000000     0          
C231     C      0.773800000000     0.281000000000     0.097400000000     0          
H232     H      0.790700000000     0.302400000000     0.066000000000     0          
C233     C      0.845200000000     0.306400000000     0.301900000000     0          
H234     H      0.849200000000     0.280300000000     0.323300000000     0          
C235     C      0.807400000000     0.313510000000     0.237400000000     0          
C236     C      0.797400000000     0.351200000000     0.210400000000     0          
H237     H      0.769400000000     0.356800000000     0.165600000000     0          
C238     C      0.530300000000     0.467800000000     0.546800000000     0          
O239     O      0.557040000000     0.104750000000     0.410900000000     0          
O240     O      0.608500000000     0.058320000000     0.334100000000     0          
C241     C      0.630200000000     0.125910000000     0.312600000000     0          
C242     C      0.595100000000     0.093270000000     0.356000000000     0          
C243     C      0.670300000000     0.118190000000     0.250600000000     0          
H244     H      0.677300000000     0.091800000000     0.233300000000     0          
C245     C      0.620600000000     0.164260000000     0.339700000000     0          
H246     H      0.591700000000     0.170400000000     0.382600000000     0          
C247     C      0.726200000000     0.218400000000     0.191900000000     0          
C248     C      0.726200000000     0.219000000000     0.097400000000     0          
H249     H      0.709300000000     0.197600000000     0.066000000000     0          
C250     C      0.654800000000     0.193600000000     0.301900000000     0          
H251     H      0.650800000000     0.219700000000     0.323300000000     0          
C252     C      0.692600000000     0.186490000000     0.237400000000     0          
C253     C      0.702600000000     0.148800000000     0.210400000000     0          
H254     H      0.730600000000     0.143200000000     0.165600000000     0          
H255     H      0.771600000000     0.232000000000     0.345900000000     0          
O256     O      0.057040000000     0.604750000000     0.410900000000     0          
O257     O      0.108500000000     0.558320000000     0.334100000000     0          
C258     C      0.130200000000     0.625910000000     0.312600000000     0          
C259     C      0.095100000000     0.593270000000     0.356000000000     0          
C260     C      0.170300000000     0.618190000000     0.250600000000     0          
H261     H      0.177300000000     0.591800000000     0.233300000000     0          
C262     C      0.120600000000     0.664260000000     0.339700000000     0          
H263     H      0.091700000000     0.670400000000     0.382600000000     0          
C264     C      0.226200000000     0.718400000000     0.191900000000     0          
C265     C      0.226200000000     0.719000000000     0.097400000000     0          
H266     H      0.209300000000     0.697600000000     0.066000000000     0          
C267     C      0.154800000000     0.693600000000     0.301900000000     0          
H268     H      0.150800000000     0.719700000000     0.323300000000     0          
C269     C      0.192600000000     0.686490000000     0.237400000000     0          
C270     C      0.202600000000     0.648800000000     0.210400000000     0          
H271     H      0.230600000000     0.643200000000     0.165600000000     0          
H272     H      0.271600000000     0.732000000000     0.345900000000     0          
Zr273    Zr     0.500000000000     0.072100000000     0.500000000000     0          
Zr274    Zr     0.000000000000     0.572100000000     0.500000000000     0          
Zr275    Zr     0.500000000000     0.927900000000     0.500000000000     0          
Zr276    Zr     0.000000000000     0.427900000000     0.500000000000     0          
Zr277    Zr     0.424100000000     0.000000000000     0.382210000000     0          
O278     O      0.332300000000     0.000000000000     0.421400000000     0          
C279     C      0.157700000000     0.000000000000     0.422500000000     0          
H280     H      0.137600000000     0.000000000000     0.366900000000     0          
C281     C      0.212700000000     0.000000000000     0.422200000000     0          
H282     H      0.232300000000     0.000000000000     0.366200000000     0          
C283     C      0.445400000000     0.000000000000     0.048700000000     0          
H284     H      0.410300000000     0.000000000000     0.081700000000     0          
O285     O      0.436700000000     0.000000000000     0.237000000000     0          
Zr286    Zr     0.924100000000     0.500000000000     0.382210000000     0          
O287     O      0.832300000000     0.500000000000     0.421400000000     0          
C288     C      0.657700000000     0.500000000000     0.422500000000     0          
H289     H      0.637600000000     0.500000000000     0.366900000000     0          
C290     C      0.712700000000     0.500000000000     0.422200000000     0          
H291     H      0.732300000000     0.500000000000     0.366200000000     0          
C292     C      0.945400000000     0.500000000000     0.048700000000     0          
H293     H      0.910300000000     0.500000000000     0.081700000000     0          
O294     O      0.936700000000     0.500000000000     0.237000000000     0          
Zr295    Zr     0.575900000000     0.000000000000     0.382210000000     0          
O296     O      0.667700000000     0.000000000000     0.421400000000     0          
C297     C      0.842300000000     0.000000000000     0.422500000000     0          
H298     H      0.862400000000     0.000000000000     0.366900000000     0          
C299     C      0.787300000000     0.000000000000     0.422200000000     0          
H300     H      0.767700000000     0.000000000000     0.366200000000     0          
C301     C      0.554600000000     0.000000000000     0.048700000000     0          
H302     H      0.589700000000     0.000000000000     0.081700000000     0          
O303     O      0.563300000000     0.000000000000     0.237000000000     0          
Zr304    Zr     0.075900000000     0.500000000000     0.382210000000     0          
O305     O      0.167700000000     0.500000000000     0.421400000000     0          
C306     C      0.342300000000     0.500000000000     0.422500000000     0          
H307     H      0.362400000000     0.500000000000     0.366900000000     0          
C308     C      0.287300000000     0.500000000000     0.422200000000     0          
H309     H      0.267700000000     0.500000000000     0.366200000000     0          
C310     C      0.054600000000     0.500000000000     0.048700000000     0          
H311     H      0.089700000000     0.500000000000     0.081700000000     0          
O312     O      0.063300000000     0.500000000000     0.237000000000     0          
Zr313    Zr     0.575900000000     0.000000000000     0.617790000000     0          
O314     O      0.667700000000     0.000000000000     0.578600000000     0          
C315     C      0.842300000000     0.000000000000     0.577500000000     0          
H316     H      0.862400000000     0.000000000000     0.633100000000     0          
C317     C      0.787300000000     0.000000000000     0.577800000000     0          
H318     H      0.767700000000     0.000000000000     0.633800000000     0          
C319     C      0.554600000000     0.000000000000     0.951300000000     0          
H320     H      0.589700000000     0.000000000000     0.918300000000     0          
O321     O      0.563300000000     0.000000000000     0.763000000000     0          
Zr322    Zr     0.075900000000     0.500000000000     0.617790000000     0          
O323     O      0.167700000000     0.500000000000     0.578600000000     0          
C324     C      0.342300000000     0.500000000000     0.577500000000     0          
H325     H      0.362400000000     0.500000000000     0.633100000000     0          
C326     C      0.287300000000     0.500000000000     0.577800000000     0          
H327     H      0.267700000000     0.500000000000     0.633800000000     0          
C328     C      0.054600000000     0.500000000000     0.951300000000     0          
H329     H      0.089700000000     0.500000000000     0.918300000000     0          
O330     O      0.063300000000     0.500000000000     0.763000000000     0          
Zr331    Zr     0.424100000000     0.000000000000     0.617790000000     0          
O332     O      0.332300000000     0.000000000000     0.578600000000     0          
C333     C      0.157700000000     0.000000000000     0.577500000000     0          
H334     H      0.137600000000     0.000000000000     0.633100000000     0          
C335     C      0.212700000000     0.000000000000     0.577800000000     0          
H336     H      0.232300000000     0.000000000000     0.633800000000     0          
C337     C      0.445400000000     0.000000000000     0.951300000000     0          
H338     H      0.410300000000     0.000000000000     0.918300000000     0          
O339     O      0.436700000000     0.000000000000     0.763000000000     0          
Zr340    Zr     0.924100000000     0.500000000000     0.617790000000     0          
O341     O      0.832300000000     0.500000000000     0.578600000000     0          
C342     C      0.657700000000     0.500000000000     0.577500000000     0          
H343     H      0.637600000000     0.500000000000     0.633100000000     0          
C344     C      0.712700000000     0.500000000000     0.577800000000     0          
H345     H      0.732300000000     0.500000000000     0.633800000000     0          
C346     C      0.945400000000     0.500000000000     0.951300000000     0          
H347     H      0.910300000000     0.500000000000     0.918300000000     0          
O348     O      0.936700000000     0.500000000000     0.763000000000     0          
O349     O      0.426100000000     0.035370000000     0.500000000000     0          
O350     O      0.926100000000     0.535370000000     0.500000000000     0          
O351     O      0.573900000000     0.964630000000     0.500000000000     0          
O352     O      0.073900000000     0.464630000000     0.500000000000     0          
O353     O      0.573900000000     0.035370000000     0.500000000000     0          
O354     O      0.073900000000     0.535370000000     0.500000000000     0          
O355     O      0.426100000000     0.964630000000     0.500000000000     0          
O356     O      0.926100000000     0.464630000000     0.500000000000     0          
O357     O      0.500000000000     0.035400000000     0.380100000000     0          
O358     O      0.000000000000     0.535400000000     0.380100000000     0          
O359     O      0.500000000000     0.964600000000     0.380100000000     0          
O360     O      0.000000000000     0.464600000000     0.380100000000     0          
O361     O      0.500000000000     0.035400000000     0.619900000000     0          
O362     O      0.000000000000     0.535400000000     0.619900000000     0          
O363     O      0.500000000000     0.964600000000     0.619900000000     0          
O364     O      0.000000000000     0.464600000000     0.619900000000     0          
O365     O      0.250000000000     0.250000000000     0.327100000000     0          
C366     C      0.250000000000     0.250000000000     0.048100000000     0          
C367     C      0.250000000000     0.250000000000     0.236900000000     0          
O368     O      0.750000000000     0.750000000000     0.327100000000     0          
C369     C      0.750000000000     0.750000000000     0.048100000000     0          
C370     C      0.750000000000     0.750000000000     0.236900000000     0          
O371     O      0.750000000000     0.250000000000     0.672900000000     0          
C372     C      0.750000000000     0.250000000000     0.951900000000     0          
C373     C      0.750000000000     0.250000000000     0.763100000000     0          
O374     O      0.250000000000     0.750000000000     0.672900000000     0          
C375     C      0.250000000000     0.750000000000     0.951900000000     0          
C376     C      0.250000000000     0.750000000000     0.763100000000     0          
O377     O      0.750000000000     0.750000000000     0.672900000000     0          
C378     C      0.750000000000     0.750000000000     0.951900000000     0          
C379     C      0.750000000000     0.750000000000     0.763100000000     0          
O380     O      0.250000000000     0.250000000000     0.672900000000     0          
C381     C      0.250000000000     0.250000000000     0.951900000000     0          
C382     C      0.250000000000     0.250000000000     0.763100000000     0          
O383     O      0.250000000000     0.750000000000     0.327100000000     0          
C384     C      0.250000000000     0.750000000000     0.048100000000     0          
C385     C      0.250000000000     0.750000000000     0.236900000000     0          
O386     O      0.750000000000     0.250000000000     0.327100000000     0          
C387     C      0.750000000000     0.250000000000     0.048100000000     0          
C388     C      0.750000000000     0.250000000000     0.236900000000     0          
C389     C      0.307700000000     0.000000000000     0.500000000000     0          
C390     C      0.245000000000     0.000000000000     0.500000000000     0          
C391     C      0.126800000000     0.000000000000     0.500000000000     0          
C392     C      0.060000000000     0.000000000000     0.500000000000     0          
C393     C      0.807700000000     0.500000000000     0.500000000000     0          
C394     C      0.745000000000     0.500000000000     0.500000000000     0          
C395     C      0.626800000000     0.500000000000     0.500000000000     0          
C396     C      0.560000000000     0.500000000000     0.500000000000     0          
C397     C      0.692300000000     0.000000000000     0.500000000000     0          
C398     C      0.755000000000     0.000000000000     0.500000000000     0          
C399     C      0.873200000000     0.000000000000     0.500000000000     0          
C400     C      0.940000000000     0.000000000000     0.500000000000     0          
C401     C      0.192300000000     0.500000000000     0.500000000000     0          
C402     C      0.255000000000     0.500000000000     0.500000000000     0          
C403     C      0.373200000000     0.500000000000     0.500000000000     0          
C404     C      0.440000000000     0.500000000000     0.500000000000     0          
C405     C      0.500000000000     0.000000000000     0.203000000000     0          
C406     C      0.500000000000     0.000000000000     0.093200000000     0          
C407     C      0.000000000000     0.500000000000     0.203000000000     0          
C408     C      0.000000000000     0.500000000000     0.093200000000     0          
C409     C      0.500000000000     0.000000000000     0.797000000000     0          
C410     C      0.500000000000     0.000000000000     0.906800000000     0          
C411     C      0.000000000000     0.500000000000     0.797000000000     0          
C412     C      0.000000000000     0.500000000000     0.906800000000     0          
C413     C      0.434140000000     0.434860000000     0.590490000000     0          
H414     H      0.443540000000     0.556100000000     0.418460000000     0          
C415     C      0.565860000000     0.565140000000     0.409510000000     0          
H416     H      0.556460000000     0.443900000000     0.581540000000     0          
H417     H      0.464450000000     0.411130000000     0.616660000000     0          
H418     H      0.403650000000     0.421630000000     0.538680000000     0          
H419     H      0.407970000000     0.447390000000     0.648520000000     0          
H420     H      0.552940000000     0.568200000000     0.336100000000     0          
H421     H      0.613740000000     0.557690000000     0.414090000000     0          
H422     H      0.557260000000     0.593960000000     0.445950000000     0          
C423     C      0.934000000000     0.936660000000     0.596590000000     0          
H424     H      0.056460000000     0.943900000000     0.581540000000     0          
H425     H      0.943540000000     0.056100000000     0.418460000000     0          
C426     C      0.066000000000     0.063340000000     0.403410000000     0          
H427     H      0.963440000000     0.911640000000     0.618550000000     0          
H428     H      0.899090000000     0.924770000000     0.550100000000     0          
H429     H      0.912990000000     0.950480000000     0.658070000000     0          
H430     H      0.048740000000     0.066840000000     0.332290000000     0          
H431     H      0.113100000000     0.053720000000     0.400740000000     0          
H432     H      0.062640000000     0.092550000000     0.440250000000     0          


