data_NIKTUZ

_audit_creation_method RASPA-1.0
_audit_creation_date 2020-11-2
_audit_author_name 'Rocio Bueno-Perez'

_cell_length_a    13.3898
_cell_length_b    19.4667
_cell_length_c    14.1355
_cell_angle_alpha 90
_cell_angle_beta  90
_cell_angle_gamma 90
_cell_volume      3684.49

_symmetry_cell_setting          orthorhombic
_symmetry_space_group_name_Hall 'P 1'
_symmetry_space_group_name_H-M  'P 1'
_symmetry_Int_Tables_number     1

_symmetry_equiv_pos_as_xyz 'x,y,z'

loop_
_atom_site_label
_atom_site_type_symbol
_atom_site_fract_x
_atom_site_fract_y
_atom_site_fract_z
_atom_site_charge
Zr2      Zr     0.371910000000     0.469640000000     0.873110000000     0          
O1       O      0.334900000000     0.662500000000     0.892200000000     0          
O2       O      0.284000000000     0.560700000000     0.829700000000     0          
O3       O      0.474300000000     0.552500000000     0.110500000000     0          
O4       O      0.012400000000     0.803000000000     0.594700000000     0          
O5       O      0.143400000000     0.856200000000     0.662000000000     0          
C1       C      0.287310000000     0.623130000000     0.841590000000     0          
C2       C      0.216270000000     0.663630000000     0.780530000000     0          
C3       C      0.211550000000     0.734870000000     0.762300000000     0          
C4       C      0.132740000000     0.740410000000     0.696340000000     0          
C5       C      0.090780000000     0.802250000000     0.645860000000     0          
N1       N      0.145970000000     0.631490000000     0.728820000000     0          
N2       N      0.096010000000     0.677300000000     0.678760000000     0          
Zr1      Zr     0.437610000000     0.625030000000     0.000000000000     0          
O8       O      0.342900000000     0.533400000000     0.000000000000     0          
O9       O      0.588100000000     0.589800000000     0.000000000000     0          
Zr2      Zr     0.628090000000     0.530360000000     0.873110000000     0          
O1       O      0.665100000000     0.337500000000     0.892200000000     0          
O2       O      0.716000000000     0.439300000000     0.829700000000     0          
O3       O      0.525700000000     0.447500000000     0.110500000000     0          
O4       O      0.987600000000     0.197000000000     0.594700000000     0          
O5       O      0.856600000000     0.143800000000     0.662000000000     0          
C1       C      0.712690000000     0.376870000000     0.841590000000     0          
C2       C      0.783730000000     0.336370000000     0.780530000000     0          
C3       C      0.788450000000     0.265130000000     0.762300000000     0          
C4       C      0.867260000000     0.259590000000     0.696340000000     0          
C5       C      0.909220000000     0.197750000000     0.645860000000     0          
N1       N      0.854030000000     0.368510000000     0.728820000000     0          
N2       N      0.903990000000     0.322700000000     0.678760000000     0          
Zr1      Zr     0.562390000000     0.374970000000     0.000000000000     0          
O8       O      0.657100000000     0.466600000000     0.000000000000     0          
O9       O      0.411900000000     0.410200000000     0.000000000000     0          
Zr2      Zr     0.871910000000     0.030360000000     0.626890000000     0          
O1       O      0.834900000000     0.837500000000     0.607800000000     0          
O2       O      0.784000000000     0.939300000000     0.670300000000     0          
O3       O      0.974300000000     0.947500000000     0.389500000000     0          
O4       O      0.512400000000     0.697000000000     0.905300000000     0          
O5       O      0.643400000000     0.643800000000     0.838000000000     0          
C1       C      0.787310000000     0.876870000000     0.658410000000     0          
C2       C      0.716270000000     0.836370000000     0.719470000000     0          
C3       C      0.711550000000     0.765130000000     0.737700000000     0          
C4       C      0.632740000000     0.759590000000     0.803660000000     0          
C5       C      0.590780000000     0.697750000000     0.854140000000     0          
N1       N      0.645970000000     0.868510000000     0.771180000000     0          
N2       N      0.596010000000     0.822700000000     0.821240000000     0          
Zr1      Zr     0.937610000000     0.874970000000     0.500000000000     0          
O8       O      0.842900000000     0.966600000000     0.500000000000     0          
O9       O      0.088100000000     0.910200000000     0.500000000000     0          
Zr2      Zr     0.128090000000     0.969640000000     0.626890000000     0          
O1       O      0.165100000000     0.162500000000     0.607800000000     0          
O2       O      0.216000000000     0.060700000000     0.670300000000     0          
O3       O      0.025700000000     0.052500000000     0.389500000000     0          
O4       O      0.487600000000     0.303000000000     0.905300000000     0          
O5       O      0.356600000000     0.356200000000     0.838000000000     0          
C1       C      0.212690000000     0.123130000000     0.658410000000     0          
C2       C      0.283730000000     0.163630000000     0.719470000000     0          
C3       C      0.288450000000     0.234870000000     0.737700000000     0          
C4       C      0.367260000000     0.240410000000     0.803660000000     0          
C5       C      0.409220000000     0.302250000000     0.854140000000     0          
N1       N      0.354030000000     0.131490000000     0.771180000000     0          
N2       N      0.403990000000     0.177300000000     0.821240000000     0          
Zr1      Zr     0.062390000000     0.125030000000     0.500000000000     0          
O8       O      0.157100000000     0.033400000000     0.500000000000     0          
O9       O      0.911900000000     0.089800000000     0.500000000000     0          
Zr2      Zr     0.628090000000     0.530360000000     0.126890000000     0          
O1       O      0.665100000000     0.337500000000     0.107800000000     0          
O2       O      0.716000000000     0.439300000000     0.170300000000     0          
O3       O      0.525700000000     0.447500000000     0.889500000000     0          
O4       O      0.987600000000     0.197000000000     0.405300000000     0          
O5       O      0.856600000000     0.143800000000     0.338000000000     0          
C1       C      0.712690000000     0.376870000000     0.158410000000     0          
C2       C      0.783730000000     0.336370000000     0.219470000000     0          
C3       C      0.788450000000     0.265130000000     0.237700000000     0          
C4       C      0.867260000000     0.259590000000     0.303660000000     0          
C5       C      0.909220000000     0.197750000000     0.354140000000     0          
N1       N      0.854030000000     0.368510000000     0.271180000000     0          
N2       N      0.903990000000     0.322700000000     0.321240000000     0          
Zr2      Zr     0.371910000000     0.469640000000     0.126890000000     0          
O1       O      0.334900000000     0.662500000000     0.107800000000     0          
O2       O      0.284000000000     0.560700000000     0.170300000000     0          
O3       O      0.474300000000     0.552500000000     0.889500000000     0          
O4       O      0.012400000000     0.803000000000     0.405300000000     0          
O5       O      0.143400000000     0.856200000000     0.338000000000     0          
C1       C      0.287310000000     0.623130000000     0.158410000000     0          
C2       C      0.216270000000     0.663630000000     0.219470000000     0          
C3       C      0.211550000000     0.734870000000     0.237700000000     0          
C4       C      0.132740000000     0.740410000000     0.303660000000     0          
C5       C      0.090780000000     0.802250000000     0.354140000000     0          
N1       N      0.145970000000     0.631490000000     0.271180000000     0          
N2       N      0.096010000000     0.677300000000     0.321240000000     0          
Zr2      Zr     0.128090000000     0.969640000000     0.373110000000     0          
O1       O      0.165100000000     0.162500000000     0.392200000000     0          
O2       O      0.216000000000     0.060700000000     0.329700000000     0          
O3       O      0.025700000000     0.052500000000     0.610500000000     0          
O4       O      0.487600000000     0.303000000000     0.094700000000     0          
O5       O      0.356600000000     0.356200000000     0.162000000000     0          
C1       C      0.212690000000     0.123130000000     0.341590000000     0          
C2       C      0.283730000000     0.163630000000     0.280530000000     0          
C3       C      0.288450000000     0.234870000000     0.262300000000     0          
C4       C      0.367260000000     0.240410000000     0.196340000000     0          
C5       C      0.409220000000     0.302250000000     0.145860000000     0          
N1       N      0.354030000000     0.131490000000     0.228820000000     0          
N2       N      0.403990000000     0.177300000000     0.178760000000     0          
Zr2      Zr     0.871910000000     0.030360000000     0.373110000000     0          
O1       O      0.834900000000     0.837500000000     0.392200000000     0          
O2       O      0.784000000000     0.939300000000     0.329700000000     0          
O3       O      0.974300000000     0.947500000000     0.610500000000     0          
O4       O      0.512400000000     0.697000000000     0.094700000000     0          
O5       O      0.643400000000     0.643800000000     0.162000000000     0          
C1       C      0.787310000000     0.876870000000     0.341590000000     0          
C2       C      0.716270000000     0.836370000000     0.280530000000     0          
C3       C      0.711550000000     0.765130000000     0.262300000000     0          
C4       C      0.632740000000     0.759590000000     0.196340000000     0          
C5       C      0.590780000000     0.697750000000     0.145860000000     0          
N1       N      0.645970000000     0.868510000000     0.228820000000     0          
N2       N      0.596010000000     0.822700000000     0.178760000000     0          


