data_NIXCAB

_audit_creation_method RASPA-1.0
_audit_creation_date 2020-11-2
_audit_author_name 'Rocio Bueno-Perez'

_cell_length_a    23.0084
_cell_length_b    23.0084
_cell_length_c    18.8119
_cell_angle_alpha 90
_cell_angle_beta  90
_cell_angle_gamma 90
_cell_volume      9958.77

_symmetry_cell_setting          tetragonal
_symmetry_space_group_name_Hall 'P 1'
_symmetry_space_group_name_H-M  'P 1'
_symmetry_Int_Tables_number     1

_symmetry_equiv_pos_as_xyz 'x,y,z'

loop_
_atom_site_label
_atom_site_type_symbol
_atom_site_fract_x
_atom_site_fract_y
_atom_site_fract_z
_atom_site_charge
F1       F      0.283000000000     0.643600000000     0.385800000000     0          
F2       F      0.372700000000     0.648300000000     0.409500000000     0          
F3       F      0.345600000000     0.616300000000     0.310700000000     0          
O1       O      0.441600000000     0.843200000000     0.428800000000     0          
O2       O      0.395400000000     0.913700000000     0.365100000000     0          
C1       C      0.306400000000     0.734800000000     0.268800000000     0          
C2       C      0.336300000000     0.718200000000     0.329600000000     0          
C3       C      0.369000000000     0.759500000000     0.366800000000     0          
H1       H      0.389600000000     0.748500000000     0.408500000000     0          
C4       C      0.371300000000     0.816600000000     0.342800000000     0          
C5       C      0.341400000000     0.832900000000     0.282200000000     0          
H2       H      0.343000000000     0.872000000000     0.266000000000     0          
C6       C      0.308700000000     0.791800000000     0.245100000000     0          
C7       C      0.405800000000     0.861400000000     0.381600000000     0          
C8       C      0.334700000000     0.657600000000     0.357200000000     0          
F4?      F      0.287700000000     0.778300000000     0.123700000000     0          
F5?      F      0.294000000000     0.864100000000     0.158100000000     0          
F6?      F      0.220700000000     0.814700000000     0.188300000000     0          
C14?     C      0.277700000000     0.811300000000     0.180100000000     0          
Zr1      Zr     0.500000000000     0.892760000000     0.500000000000     0          
Zr2      Zr     0.575790000000     0.000000000000     0.593800000000     0          
O3       O      0.555200000000     0.000000000000     0.707600000000     0          
C11      C      0.552900000000     0.000000000000     0.850600000000     0          
H4       H      0.588700000000     0.000000000000     0.825500000000     0          
C12      C      0.552300000000     0.000000000000     0.924400000000     0          
H5       H      0.587900000000     0.000000000000     0.950000000000     0          
O4       O      0.500000000000     0.947700000000     0.591900000000     0          
O5       O      0.577300000000     0.947600000000     0.500000000000     0          
C9       C      0.500000000000     0.000000000000     0.734700000000     0          
C10      C      0.500000000000     0.000000000000     0.813500000000     0          
C13      C      0.500000000000     0.000000000000     0.960800000000     0          
F1       F      0.356400000000     0.283000000000     0.885800000000     0          
F2       F      0.351700000000     0.372700000000     0.909500000000     0          
F3       F      0.383700000000     0.345600000000     0.810700000000     0          
O1       O      0.156800000000     0.441600000000     0.928800000000     0          
O2       O      0.086300000000     0.395400000000     0.865100000000     0          
C1       C      0.265200000000     0.306400000000     0.768800000000     0          
C2       C      0.281800000000     0.336300000000     0.829600000000     0          
C3       C      0.240500000000     0.369000000000     0.866800000000     0          
H1       H      0.251500000000     0.389600000000     0.908500000000     0          
C4       C      0.183400000000     0.371300000000     0.842800000000     0          
C5       C      0.167100000000     0.341400000000     0.782200000000     0          
H2       H      0.128000000000     0.343000000000     0.766000000000     0          
C6       C      0.208200000000     0.308700000000     0.745100000000     0          
C7       C      0.138600000000     0.405800000000     0.881600000000     0          
C8       C      0.342400000000     0.334700000000     0.857200000000     0          
F4?      F      0.221700000000     0.287700000000     0.623700000000     0          
F5?      F      0.135900000000     0.294000000000     0.658100000000     0          
F6?      F      0.185300000000     0.220700000000     0.688300000000     0          
C14?     C      0.188700000000     0.277700000000     0.680100000000     0          
Zr1      Zr     0.107240000000     0.500000000000     0.000000000000     0          
Zr2      Zr     0.000000000000     0.575790000000     0.093800000000     0          
O3       O      0.000000000000     0.555200000000     0.207600000000     0          
C11      C      0.000000000000     0.552900000000     0.350600000000     0          
H4       H      0.000000000000     0.588700000000     0.325500000000     0          
C12      C      0.000000000000     0.552300000000     0.424400000000     0          
H5       H      0.000000000000     0.587900000000     0.450000000000     0          
O4       O      0.052300000000     0.500000000000     0.091900000000     0          
O5       O      0.052400000000     0.577300000000     0.000000000000     0          
C9       C      0.000000000000     0.500000000000     0.234700000000     0          
C10      C      0.000000000000     0.500000000000     0.313500000000     0          
C13      C      0.000000000000     0.500000000000     0.460800000000     0          
F1       F      0.717000000000     0.356400000000     0.385800000000     0          
F2       F      0.627300000000     0.351700000000     0.409500000000     0          
F3       F      0.654400000000     0.383700000000     0.310700000000     0          
O1       O      0.558400000000     0.156800000000     0.428800000000     0          
O2       O      0.604600000000     0.086300000000     0.365100000000     0          
C1       C      0.693600000000     0.265200000000     0.268800000000     0          
C2       C      0.663700000000     0.281800000000     0.329600000000     0          
C3       C      0.631000000000     0.240500000000     0.366800000000     0          
H1       H      0.610400000000     0.251500000000     0.408500000000     0          
C4       C      0.628700000000     0.183400000000     0.342800000000     0          
C5       C      0.658600000000     0.167100000000     0.282200000000     0          
H2       H      0.657000000000     0.128000000000     0.266000000000     0          
C6       C      0.691300000000     0.208200000000     0.245100000000     0          
C7       C      0.594200000000     0.138600000000     0.381600000000     0          
C8       C      0.665300000000     0.342400000000     0.357200000000     0          
F4?      F      0.712300000000     0.221700000000     0.123700000000     0          
F5?      F      0.706000000000     0.135900000000     0.158100000000     0          
F6?      F      0.779300000000     0.185300000000     0.188300000000     0          
C14?     C      0.722300000000     0.188700000000     0.180100000000     0          
Zr1      Zr     0.500000000000     0.107240000000     0.500000000000     0          
Zr2      Zr     0.424210000000     0.000000000000     0.593800000000     0          
O3       O      0.444800000000     0.000000000000     0.707600000000     0          
C11      C      0.447100000000     0.000000000000     0.850600000000     0          
H4       H      0.411300000000     0.000000000000     0.825500000000     0          
C12      C      0.447700000000     0.000000000000     0.924400000000     0          
H5       H      0.412100000000     0.000000000000     0.950000000000     0          
O4       O      0.500000000000     0.052300000000     0.591900000000     0          
O5       O      0.422700000000     0.052400000000     0.500000000000     0          
F1       F      0.643600000000     0.717000000000     0.885800000000     0          
F2       F      0.648300000000     0.627300000000     0.909500000000     0          
F3       F      0.616300000000     0.654400000000     0.810700000000     0          
O1       O      0.843200000000     0.558400000000     0.928800000000     0          
O2       O      0.913700000000     0.604600000000     0.865100000000     0          
C1       C      0.734800000000     0.693600000000     0.768800000000     0          
C2       C      0.718200000000     0.663700000000     0.829600000000     0          
C3       C      0.759500000000     0.631000000000     0.866800000000     0          
H1       H      0.748500000000     0.610400000000     0.908500000000     0          
C4       C      0.816600000000     0.628700000000     0.842800000000     0          
C5       C      0.832900000000     0.658600000000     0.782200000000     0          
H2       H      0.872000000000     0.657000000000     0.766000000000     0          
C6       C      0.791800000000     0.691300000000     0.745100000000     0          
C7       C      0.861400000000     0.594200000000     0.881600000000     0          
C8       C      0.657600000000     0.665300000000     0.857200000000     0          
F4?      F      0.778300000000     0.712300000000     0.623700000000     0          
F5?      F      0.864100000000     0.706000000000     0.658100000000     0          
F6?      F      0.814700000000     0.779300000000     0.688300000000     0          
C14?     C      0.811300000000     0.722300000000     0.680100000000     0          
Zr1      Zr     0.892760000000     0.500000000000     0.000000000000     0          
Zr2      Zr     0.000000000000     0.424210000000     0.093800000000     0          
O3       O      0.000000000000     0.444800000000     0.207600000000     0          
C11      C      0.000000000000     0.447100000000     0.350600000000     0          
H4       H      0.000000000000     0.411300000000     0.325500000000     0          
C12      C      0.000000000000     0.447700000000     0.424400000000     0          
H5       H      0.000000000000     0.412100000000     0.450000000000     0          
O4       O      0.947700000000     0.500000000000     0.091900000000     0          
O5       O      0.947600000000     0.422700000000     0.000000000000     0          
F1       F      0.283000000000     0.356400000000     0.614200000000     0          
F2       F      0.372700000000     0.351700000000     0.590500000000     0          
F3       F      0.345600000000     0.383700000000     0.689300000000     0          
O1       O      0.441600000000     0.156800000000     0.571200000000     0          
O2       O      0.395400000000     0.086300000000     0.634900000000     0          
C1       C      0.306400000000     0.265200000000     0.731200000000     0          
C2       C      0.336300000000     0.281800000000     0.670400000000     0          
C3       C      0.369000000000     0.240500000000     0.633200000000     0          
H1       H      0.389600000000     0.251500000000     0.591500000000     0          
C4       C      0.371300000000     0.183400000000     0.657200000000     0          
C5       C      0.341400000000     0.167100000000     0.717800000000     0          
H2       H      0.343000000000     0.128000000000     0.734000000000     0          
C6       C      0.308700000000     0.208200000000     0.754900000000     0          
C7       C      0.405800000000     0.138600000000     0.618400000000     0          
C8       C      0.334700000000     0.342400000000     0.642800000000     0          
F4?      F      0.287700000000     0.221700000000     0.876300000000     0          
F5?      F      0.294000000000     0.135900000000     0.841900000000     0          
F6?      F      0.220700000000     0.185300000000     0.811700000000     0          
C14?     C      0.277700000000     0.188700000000     0.819900000000     0          
Zr2      Zr     0.575790000000     0.000000000000     0.406200000000     0          
O3       O      0.555200000000     0.000000000000     0.292400000000     0          
C11      C      0.552900000000     0.000000000000     0.149400000000     0          
H4       H      0.588700000000     0.000000000000     0.174500000000     0          
C12      C      0.552300000000     0.000000000000     0.075600000000     0          
H5       H      0.587900000000     0.000000000000     0.050000000000     0          
O4       O      0.500000000000     0.052300000000     0.408100000000     0          
O5       O      0.577300000000     0.052400000000     0.500000000000     0          
C9       C      0.500000000000     0.000000000000     0.265300000000     0          
C10      C      0.500000000000     0.000000000000     0.186500000000     0          
C13      C      0.500000000000     0.000000000000     0.039200000000     0          
F1       F      0.643600000000     0.283000000000     0.114200000000     0          
F2       F      0.648300000000     0.372700000000     0.090500000000     0          
F3       F      0.616300000000     0.345600000000     0.189300000000     0          
O1       O      0.843200000000     0.441600000000     0.071200000000     0          
O2       O      0.913700000000     0.395400000000     0.134900000000     0          
C1       C      0.734800000000     0.306400000000     0.231200000000     0          
C2       C      0.718200000000     0.336300000000     0.170400000000     0          
C3       C      0.759500000000     0.369000000000     0.133200000000     0          
H1       H      0.748500000000     0.389600000000     0.091500000000     0          
C4       C      0.816600000000     0.371300000000     0.157200000000     0          
C5       C      0.832900000000     0.341400000000     0.217800000000     0          
H2       H      0.872000000000     0.343000000000     0.234000000000     0          
C6       C      0.791800000000     0.308700000000     0.254900000000     0          
C7       C      0.861400000000     0.405800000000     0.118400000000     0          
C8       C      0.657600000000     0.334700000000     0.142800000000     0          
F4?      F      0.778300000000     0.287700000000     0.376300000000     0          
F5?      F      0.864100000000     0.294000000000     0.341900000000     0          
F6?      F      0.814700000000     0.220700000000     0.311700000000     0          
C14?     C      0.811300000000     0.277700000000     0.319900000000     0          
Zr2      Zr     0.000000000000     0.575790000000     0.906200000000     0          
O3       O      0.000000000000     0.555200000000     0.792400000000     0          
C11      C      0.000000000000     0.552900000000     0.649400000000     0          
H4       H      0.000000000000     0.588700000000     0.674500000000     0          
C12      C      0.000000000000     0.552300000000     0.575600000000     0          
H5       H      0.000000000000     0.587900000000     0.550000000000     0          
O4       O      0.947700000000     0.500000000000     0.908100000000     0          
O5       O      0.947600000000     0.577300000000     0.000000000000     0          
C9       C      0.000000000000     0.500000000000     0.765300000000     0          
C10      C      0.000000000000     0.500000000000     0.686500000000     0          
C13      C      0.000000000000     0.500000000000     0.539200000000     0          
F1       F      0.717000000000     0.643600000000     0.614200000000     0          
F2       F      0.627300000000     0.648300000000     0.590500000000     0          
F3       F      0.654400000000     0.616300000000     0.689300000000     0          
O1       O      0.558400000000     0.843200000000     0.571200000000     0          
O2       O      0.604600000000     0.913700000000     0.634900000000     0          
C1       C      0.693600000000     0.734800000000     0.731200000000     0          
C2       C      0.663700000000     0.718200000000     0.670400000000     0          
C3       C      0.631000000000     0.759500000000     0.633200000000     0          
H1       H      0.610400000000     0.748500000000     0.591500000000     0          
C4       C      0.628700000000     0.816600000000     0.657200000000     0          
C5       C      0.658600000000     0.832900000000     0.717800000000     0          
H2       H      0.657000000000     0.872000000000     0.734000000000     0          
C6       C      0.691300000000     0.791800000000     0.754900000000     0          
C7       C      0.594200000000     0.861400000000     0.618400000000     0          
C8       C      0.665300000000     0.657600000000     0.642800000000     0          
F4?      F      0.712300000000     0.778300000000     0.876300000000     0          
F5?      F      0.706000000000     0.864100000000     0.841900000000     0          
F6?      F      0.779300000000     0.814700000000     0.811700000000     0          
C14?     C      0.722300000000     0.811300000000     0.819900000000     0          
Zr2      Zr     0.424210000000     0.000000000000     0.406200000000     0          
O3       O      0.444800000000     0.000000000000     0.292400000000     0          
C11      C      0.447100000000     0.000000000000     0.149400000000     0          
H4       H      0.411300000000     0.000000000000     0.174500000000     0          
C12      C      0.447700000000     0.000000000000     0.075600000000     0          
H5       H      0.412100000000     0.000000000000     0.050000000000     0          
O4       O      0.500000000000     0.947700000000     0.408100000000     0          
O5       O      0.422700000000     0.947600000000     0.500000000000     0          
F1       F      0.356400000000     0.717000000000     0.114200000000     0          
F2       F      0.351700000000     0.627300000000     0.090500000000     0          
F3       F      0.383700000000     0.654400000000     0.189300000000     0          
O1       O      0.156800000000     0.558400000000     0.071200000000     0          
O2       O      0.086300000000     0.604600000000     0.134900000000     0          
C1       C      0.265200000000     0.693600000000     0.231200000000     0          
C2       C      0.281800000000     0.663700000000     0.170400000000     0          
C3       C      0.240500000000     0.631000000000     0.133200000000     0          
H1       H      0.251500000000     0.610400000000     0.091500000000     0          
C4       C      0.183400000000     0.628700000000     0.157200000000     0          
C5       C      0.167100000000     0.658600000000     0.217800000000     0          
H2       H      0.128000000000     0.657000000000     0.234000000000     0          
C6       C      0.208200000000     0.691300000000     0.254900000000     0          
C7       C      0.138600000000     0.594200000000     0.118400000000     0          
C8       C      0.342400000000     0.665300000000     0.142800000000     0          
F4?      F      0.221700000000     0.712300000000     0.376300000000     0          
F5?      F      0.135900000000     0.706000000000     0.341900000000     0          
F6?      F      0.185300000000     0.779300000000     0.311700000000     0          
C14?     C      0.188700000000     0.722300000000     0.319900000000     0          
Zr2      Zr     0.000000000000     0.424210000000     0.906200000000     0          
O3       O      0.000000000000     0.444800000000     0.792400000000     0          
C11      C      0.000000000000     0.447100000000     0.649400000000     0          
H4       H      0.000000000000     0.411300000000     0.674500000000     0          
C12      C      0.000000000000     0.447700000000     0.575600000000     0          
H5       H      0.000000000000     0.412100000000     0.550000000000     0          
O4       O      0.052300000000     0.500000000000     0.908100000000     0          
O5       O      0.052400000000     0.422700000000     0.000000000000     0          
F1       F      0.717000000000     0.356400000000     0.614200000000     0          
F2       F      0.627300000000     0.351700000000     0.590500000000     0          
F3       F      0.654400000000     0.383700000000     0.689300000000     0          
O1       O      0.558400000000     0.156800000000     0.571200000000     0          
O2       O      0.604600000000     0.086300000000     0.634900000000     0          
C1       C      0.693600000000     0.265200000000     0.731200000000     0          
C2       C      0.663700000000     0.281800000000     0.670400000000     0          
C3       C      0.631000000000     0.240500000000     0.633200000000     0          
H1       H      0.610400000000     0.251500000000     0.591500000000     0          
C4       C      0.628700000000     0.183400000000     0.657200000000     0          
C5       C      0.658600000000     0.167100000000     0.717800000000     0          
H2       H      0.657000000000     0.128000000000     0.734000000000     0          
C6       C      0.691300000000     0.208200000000     0.754900000000     0          
C7       C      0.594200000000     0.138600000000     0.618400000000     0          
C8       C      0.665300000000     0.342400000000     0.642800000000     0          
F4?      F      0.712300000000     0.221700000000     0.876300000000     0          
F5?      F      0.706000000000     0.135900000000     0.841900000000     0          
F6?      F      0.779300000000     0.185300000000     0.811700000000     0          
C14?     C      0.722300000000     0.188700000000     0.819900000000     0          
F1       F      0.643600000000     0.717000000000     0.114200000000     0          
F2       F      0.648300000000     0.627300000000     0.090500000000     0          
F3       F      0.616300000000     0.654400000000     0.189300000000     0          
O1       O      0.843200000000     0.558400000000     0.071200000000     0          
O2       O      0.913700000000     0.604600000000     0.134900000000     0          
C1       C      0.734800000000     0.693600000000     0.231200000000     0          
C2       C      0.718200000000     0.663700000000     0.170400000000     0          
C3       C      0.759500000000     0.631000000000     0.133200000000     0          
H1       H      0.748500000000     0.610400000000     0.091500000000     0          
C4       C      0.816600000000     0.628700000000     0.157200000000     0          
C5       C      0.832900000000     0.658600000000     0.217800000000     0          
H2       H      0.872000000000     0.657000000000     0.234000000000     0          
C6       C      0.791800000000     0.691300000000     0.254900000000     0          
C7       C      0.861400000000     0.594200000000     0.118400000000     0          
C8       C      0.657600000000     0.665300000000     0.142800000000     0          
F4?      F      0.778300000000     0.712300000000     0.376300000000     0          
F5?      F      0.864100000000     0.706000000000     0.341900000000     0          
F6?      F      0.814700000000     0.779300000000     0.311700000000     0          
C14?     C      0.811300000000     0.722300000000     0.319900000000     0          
F1       F      0.283000000000     0.643600000000     0.614200000000     0          
F2       F      0.372700000000     0.648300000000     0.590500000000     0          
F3       F      0.345600000000     0.616300000000     0.689300000000     0          
O1       O      0.441600000000     0.843200000000     0.571200000000     0          
O2       O      0.395400000000     0.913700000000     0.634900000000     0          
C1       C      0.306400000000     0.734800000000     0.731200000000     0          
C2       C      0.336300000000     0.718200000000     0.670400000000     0          
C3       C      0.369000000000     0.759500000000     0.633200000000     0          
H1       H      0.389600000000     0.748500000000     0.591500000000     0          
C4       C      0.371300000000     0.816600000000     0.657200000000     0          
C5       C      0.341400000000     0.832900000000     0.717800000000     0          
H2       H      0.343000000000     0.872000000000     0.734000000000     0          
C6       C      0.308700000000     0.791800000000     0.754900000000     0          
C7       C      0.405800000000     0.861400000000     0.618400000000     0          
C8       C      0.334700000000     0.657600000000     0.642800000000     0          
F4?      F      0.287700000000     0.778300000000     0.876300000000     0          
F5?      F      0.294000000000     0.864100000000     0.841900000000     0          
F6?      F      0.220700000000     0.814700000000     0.811700000000     0          
C14?     C      0.277700000000     0.811300000000     0.819900000000     0          
F1       F      0.356400000000     0.283000000000     0.114200000000     0          
F2       F      0.351700000000     0.372700000000     0.090500000000     0          
F3       F      0.383700000000     0.345600000000     0.189300000000     0          
O1       O      0.156800000000     0.441600000000     0.071200000000     0          
O2       O      0.086300000000     0.395400000000     0.134900000000     0          
C1       C      0.265200000000     0.306400000000     0.231200000000     0          
C2       C      0.281800000000     0.336300000000     0.170400000000     0          
C3       C      0.240500000000     0.369000000000     0.133200000000     0          
H1       H      0.251500000000     0.389600000000     0.091500000000     0          
C4       C      0.183400000000     0.371300000000     0.157200000000     0          
C5       C      0.167100000000     0.341400000000     0.217800000000     0          
H2       H      0.128000000000     0.343000000000     0.234000000000     0          
C6       C      0.208200000000     0.308700000000     0.254900000000     0          
C7       C      0.138600000000     0.405800000000     0.118400000000     0          
C8       C      0.342400000000     0.334700000000     0.142800000000     0          
F4?      F      0.221700000000     0.287700000000     0.376300000000     0          
F5?      F      0.135900000000     0.294000000000     0.341900000000     0          
F6?      F      0.185300000000     0.220700000000     0.311700000000     0          
C14?     C      0.188700000000     0.277700000000     0.319900000000     0          
F1       F      0.717000000000     0.643600000000     0.385800000000     0          
F2       F      0.627300000000     0.648300000000     0.409500000000     0          
F3       F      0.654400000000     0.616300000000     0.310700000000     0          
O1       O      0.558400000000     0.843200000000     0.428800000000     0          
O2       O      0.604600000000     0.913700000000     0.365100000000     0          
C1       C      0.693600000000     0.734800000000     0.268800000000     0          
C2       C      0.663700000000     0.718200000000     0.329600000000     0          
C3       C      0.631000000000     0.759500000000     0.366800000000     0          
H1       H      0.610400000000     0.748500000000     0.408500000000     0          
C4       C      0.628700000000     0.816600000000     0.342800000000     0          
C5       C      0.658600000000     0.832900000000     0.282200000000     0          
H2       H      0.657000000000     0.872000000000     0.266000000000     0          
C6       C      0.691300000000     0.791800000000     0.245100000000     0          
C7       C      0.594200000000     0.861400000000     0.381600000000     0          
C8       C      0.665300000000     0.657600000000     0.357200000000     0          
F4?      F      0.712300000000     0.778300000000     0.123700000000     0          
F5?      F      0.706000000000     0.864100000000     0.158100000000     0          
F6?      F      0.779300000000     0.814700000000     0.188300000000     0          
C14?     C      0.722300000000     0.811300000000     0.180100000000     0          
F1       F      0.356400000000     0.717000000000     0.885800000000     0          
F2       F      0.351700000000     0.627300000000     0.909500000000     0          
F3       F      0.383700000000     0.654400000000     0.810700000000     0          
O1       O      0.156800000000     0.558400000000     0.928800000000     0          
O2       O      0.086300000000     0.604600000000     0.865100000000     0          
C1       C      0.265200000000     0.693600000000     0.768800000000     0          
C2       C      0.281800000000     0.663700000000     0.829600000000     0          
C3       C      0.240500000000     0.631000000000     0.866800000000     0          
H1       H      0.251500000000     0.610400000000     0.908500000000     0          
C4       C      0.183400000000     0.628700000000     0.842800000000     0          
C5       C      0.167100000000     0.658600000000     0.782200000000     0          
H2       H      0.128000000000     0.657000000000     0.766000000000     0          
C6       C      0.208200000000     0.691300000000     0.745100000000     0          
C7       C      0.138600000000     0.594200000000     0.881600000000     0          
C8       C      0.342400000000     0.665300000000     0.857200000000     0          
F4?      F      0.221700000000     0.712300000000     0.623700000000     0          
F5?      F      0.135900000000     0.706000000000     0.658100000000     0          
F6?      F      0.185300000000     0.779300000000     0.688300000000     0          
C14?     C      0.188700000000     0.722300000000     0.680100000000     0          
F1       F      0.283000000000     0.356400000000     0.385800000000     0          
F2       F      0.372700000000     0.351700000000     0.409500000000     0          
F3       F      0.345600000000     0.383700000000     0.310700000000     0          
O1       O      0.441600000000     0.156800000000     0.428800000000     0          
O2       O      0.395400000000     0.086300000000     0.365100000000     0          
C1       C      0.306400000000     0.265200000000     0.268800000000     0          
C2       C      0.336300000000     0.281800000000     0.329600000000     0          
C3       C      0.369000000000     0.240500000000     0.366800000000     0          
H1       H      0.389600000000     0.251500000000     0.408500000000     0          
C4       C      0.371300000000     0.183400000000     0.342800000000     0          
C5       C      0.341400000000     0.167100000000     0.282200000000     0          
H2       H      0.343000000000     0.128000000000     0.266000000000     0          
C6       C      0.308700000000     0.208200000000     0.245100000000     0          
C7       C      0.405800000000     0.138600000000     0.381600000000     0          
C8       C      0.334700000000     0.342400000000     0.357200000000     0          
F4?      F      0.287700000000     0.221700000000     0.123700000000     0          
F5?      F      0.294000000000     0.135900000000     0.158100000000     0          
F6?      F      0.220700000000     0.185300000000     0.188300000000     0          
C14?     C      0.277700000000     0.188700000000     0.180100000000     0          
F1       F      0.643600000000     0.283000000000     0.885800000000     0          
F2       F      0.648300000000     0.372700000000     0.909500000000     0          
F3       F      0.616300000000     0.345600000000     0.810700000000     0          
O1       O      0.843200000000     0.441600000000     0.928800000000     0          
O2       O      0.913700000000     0.395400000000     0.865100000000     0          
C1       C      0.734800000000     0.306400000000     0.768800000000     0          
C2       C      0.718200000000     0.336300000000     0.829600000000     0          
C3       C      0.759500000000     0.369000000000     0.866800000000     0          
H1       H      0.748500000000     0.389600000000     0.908500000000     0          
C4       C      0.816600000000     0.371300000000     0.842800000000     0          
C5       C      0.832900000000     0.341400000000     0.782200000000     0          
H2       H      0.872000000000     0.343000000000     0.766000000000     0          
C6       C      0.791800000000     0.308700000000     0.745100000000     0          
C7       C      0.861400000000     0.405800000000     0.881600000000     0          
C8       C      0.657600000000     0.334700000000     0.857200000000     0          
F4?      F      0.778300000000     0.287700000000     0.623700000000     0          
F5?      F      0.864100000000     0.294000000000     0.658100000000     0          
F6?      F      0.814700000000     0.220700000000     0.688300000000     0          
C14?     C      0.811300000000     0.277700000000     0.680100000000     0          


