data_NIXCEF

_audit_creation_method RASPA-1.0
_audit_creation_date 2020-11-2
_audit_author_name 'Rocio Bueno-Perez'

_cell_length_a    22.957
_cell_length_b    22.957
_cell_length_c    18.806
_cell_angle_alpha 90
_cell_angle_beta  90
_cell_angle_gamma 90
_cell_volume      9911.21

_symmetry_cell_setting          tetragonal
_symmetry_space_group_name_Hall 'P 1'
_symmetry_space_group_name_H-M  'P 1'
_symmetry_Int_Tables_number     1

_symmetry_equiv_pos_as_xyz 'x,y,z'

loop_
_atom_site_label
_atom_site_type_symbol
_atom_site_fract_x
_atom_site_fract_y
_atom_site_fract_z
_atom_site_charge
O2       O      0.412400000000     0.895600000000     0.867100000000     0          
C5       C      0.358400000000     0.909000000000     0.881400000000     0          
O6       O      0.341300000000     0.942400000000     0.927300000000     0          
C6       C      0.314900000000     0.874300000000     0.842600000000     0          
C7       C      0.257700000000     0.872400000000     0.866500000000     0          
C8       C      0.331200000000     0.843500000000     0.782300000000     0          
C9       C      0.216400000000     0.839300000000     0.829600000000     0          
H2       H      0.246700000000     0.893600000000     0.907800000000     0          
H3       H      0.370300000000     0.844900000000     0.766100000000     0          
C10      C      0.290100000000     0.810500000000     0.745400000000     0          
C11      C      0.232700000000     0.808500000000     0.769300000000     0          
C12      C      0.155300000000     0.838200000000     0.857100000000     0          
F1       F      0.142000000000     0.786900000000     0.886600000000     0          
F2       F      0.115300000000     0.847300000000     0.807800000000     0          
F3       F      0.146600000000     0.878000000000     0.907600000000     0          
F4?      F      0.360300000000     0.796300000000     0.655900000000     0          
F5?      F      0.316800000000     0.721000000000     0.694600000000     0          
F6?      F      0.272100000000     0.781100000000     0.627300000000     0          
C16?     C      0.309200000000     0.777500000000     0.680700000000     0          
I1       I      0.401000000000     0.842100000000     0.500000000000     0          
Cu1      Cu     0.500000000000     0.897000000000     0.500000000000     0          
N1       N      0.500000000000     0.947600000000     0.577400000000     0          
C1       C      0.500000000000     0.946900000000     0.651300000000     0          
H1       H      0.500000000000     0.911100000000     0.676900000000     0          
O1       O      0.500000000000     0.943600000000     0.789800000000     0          
Zr1      Zr     0.500000000000     0.924330000000     0.906680000000     0          
C13?     C      0.500000000000     0.052400000000     0.577400000000     0          
C2       C      0.500000000000     0.000000000000     0.540000000000     0          
C3       C      0.500000000000     0.000000000000     0.688300000000     0          
C4       C      0.500000000000     0.000000000000     0.768600000000     0          
O3       O      0.446300000000     0.000000000000     0.906000000000     0          
O5       O      0.554100000000     0.922100000000     0.000000000000     0          
Zr2      Zr     0.392170000000     0.000000000000     0.000000000000     0          
O2       O      0.104400000000     0.412400000000     0.367100000000     0          
C5       C      0.091000000000     0.358400000000     0.381400000000     0          
O6       O      0.057600000000     0.341300000000     0.427300000000     0          
C6       C      0.125700000000     0.314900000000     0.342600000000     0          
C7       C      0.127600000000     0.257700000000     0.366500000000     0          
C8       C      0.156500000000     0.331200000000     0.282300000000     0          
C9       C      0.160700000000     0.216400000000     0.329600000000     0          
H2       H      0.106400000000     0.246700000000     0.407800000000     0          
H3       H      0.155100000000     0.370300000000     0.266100000000     0          
C10      C      0.189500000000     0.290100000000     0.245400000000     0          
C11      C      0.191500000000     0.232700000000     0.269300000000     0          
C12      C      0.161800000000     0.155300000000     0.357100000000     0          
F1       F      0.213100000000     0.142000000000     0.386600000000     0          
F2       F      0.152700000000     0.115300000000     0.307800000000     0          
F3       F      0.122000000000     0.146600000000     0.407600000000     0          
F4?      F      0.203700000000     0.360300000000     0.155900000000     0          
F5?      F      0.279000000000     0.316800000000     0.194600000000     0          
F6?      F      0.218900000000     0.272100000000     0.127300000000     0          
C16?     C      0.222500000000     0.309200000000     0.180700000000     0          
I1       I      0.157900000000     0.401000000000     0.000000000000     0          
Cu1      Cu     0.103000000000     0.500000000000     0.000000000000     0          
N1       N      0.052400000000     0.500000000000     0.077400000000     0          
C1       C      0.053100000000     0.500000000000     0.151300000000     0          
H1       H      0.088900000000     0.500000000000     0.176900000000     0          
O1       O      0.056400000000     0.500000000000     0.289800000000     0          
Zr1      Zr     0.075670000000     0.500000000000     0.406680000000     0          
C13?     C      0.947600000000     0.500000000000     0.077400000000     0          
C2       C      0.000000000000     0.500000000000     0.040000000000     0          
C3       C      0.000000000000     0.500000000000     0.188300000000     0          
C4       C      0.000000000000     0.500000000000     0.268600000000     0          
O3       O      0.000000000000     0.446300000000     0.406000000000     0          
O5       O      0.077900000000     0.554100000000     0.500000000000     0          
Zr2      Zr     0.000000000000     0.392170000000     0.500000000000     0          
O2       O      0.587600000000     0.104400000000     0.867100000000     0          
C5       C      0.641600000000     0.091000000000     0.881400000000     0          
O6       O      0.658700000000     0.057600000000     0.927300000000     0          
C6       C      0.685100000000     0.125700000000     0.842600000000     0          
C7       C      0.742300000000     0.127600000000     0.866500000000     0          
C8       C      0.668800000000     0.156500000000     0.782300000000     0          
C9       C      0.783600000000     0.160700000000     0.829600000000     0          
H2       H      0.753300000000     0.106400000000     0.907800000000     0          
H3       H      0.629700000000     0.155100000000     0.766100000000     0          
C10      C      0.709900000000     0.189500000000     0.745400000000     0          
C11      C      0.767300000000     0.191500000000     0.769300000000     0          
C12      C      0.844700000000     0.161800000000     0.857100000000     0          
F1       F      0.858000000000     0.213100000000     0.886600000000     0          
F2       F      0.884700000000     0.152700000000     0.807800000000     0          
F3       F      0.853400000000     0.122000000000     0.907600000000     0          
F4?      F      0.639700000000     0.203700000000     0.655900000000     0          
F5?      F      0.683200000000     0.279000000000     0.694600000000     0          
F6?      F      0.727900000000     0.218900000000     0.627300000000     0          
C16?     C      0.690800000000     0.222500000000     0.680700000000     0          
I1       I      0.599000000000     0.157900000000     0.500000000000     0          
Cu1      Cu     0.500000000000     0.103000000000     0.500000000000     0          
C1       C      0.500000000000     0.053100000000     0.651300000000     0          
H1       H      0.500000000000     0.088900000000     0.676900000000     0          
O1       O      0.500000000000     0.056400000000     0.789800000000     0          
Zr1      Zr     0.500000000000     0.075670000000     0.906680000000     0          
O3       O      0.553700000000     0.000000000000     0.906000000000     0          
O5       O      0.445900000000     0.077900000000     0.000000000000     0          
Zr2      Zr     0.607830000000     0.000000000000     0.000000000000     0          
O2       O      0.895600000000     0.587600000000     0.367100000000     0          
C5       C      0.909000000000     0.641600000000     0.381400000000     0          
O6       O      0.942400000000     0.658700000000     0.427300000000     0          
C6       C      0.874300000000     0.685100000000     0.342600000000     0          
C7       C      0.872400000000     0.742300000000     0.366500000000     0          
C8       C      0.843500000000     0.668800000000     0.282300000000     0          
C9       C      0.839300000000     0.783600000000     0.329600000000     0          
H2       H      0.893600000000     0.753300000000     0.407800000000     0          
H3       H      0.844900000000     0.629700000000     0.266100000000     0          
C10      C      0.810500000000     0.709900000000     0.245400000000     0          
C11      C      0.808500000000     0.767300000000     0.269300000000     0          
C12      C      0.838200000000     0.844700000000     0.357100000000     0          
F1       F      0.786900000000     0.858000000000     0.386600000000     0          
F2       F      0.847300000000     0.884700000000     0.307800000000     0          
F3       F      0.878000000000     0.853400000000     0.407600000000     0          
F4?      F      0.796300000000     0.639700000000     0.155900000000     0          
F5?      F      0.721000000000     0.683200000000     0.194600000000     0          
F6?      F      0.781100000000     0.727900000000     0.127300000000     0          
C16?     C      0.777500000000     0.690800000000     0.180700000000     0          
I1       I      0.842100000000     0.599000000000     0.000000000000     0          
Cu1      Cu     0.897000000000     0.500000000000     0.000000000000     0          
C1       C      0.946900000000     0.500000000000     0.151300000000     0          
H1       H      0.911100000000     0.500000000000     0.176900000000     0          
O1       O      0.943600000000     0.500000000000     0.289800000000     0          
Zr1      Zr     0.924330000000     0.500000000000     0.406680000000     0          
O3       O      0.000000000000     0.553700000000     0.406000000000     0          
O5       O      0.922100000000     0.445900000000     0.500000000000     0          
Zr2      Zr     0.000000000000     0.607830000000     0.500000000000     0          
O2       O      0.412400000000     0.104400000000     0.132900000000     0          
C5       C      0.358400000000     0.091000000000     0.118600000000     0          
O6       O      0.341300000000     0.057600000000     0.072700000000     0          
C6       C      0.314900000000     0.125700000000     0.157400000000     0          
C7       C      0.257700000000     0.127600000000     0.133500000000     0          
C8       C      0.331200000000     0.156500000000     0.217700000000     0          
C9       C      0.216400000000     0.160700000000     0.170400000000     0          
H2       H      0.246700000000     0.106400000000     0.092200000000     0          
H3       H      0.370300000000     0.155100000000     0.233900000000     0          
C10      C      0.290100000000     0.189500000000     0.254600000000     0          
C11      C      0.232700000000     0.191500000000     0.230700000000     0          
C12      C      0.155300000000     0.161800000000     0.142900000000     0          
F1       F      0.142000000000     0.213100000000     0.113400000000     0          
F2       F      0.115300000000     0.152700000000     0.192200000000     0          
F3       F      0.146600000000     0.122000000000     0.092400000000     0          
F4?      F      0.360300000000     0.203700000000     0.344100000000     0          
F5?      F      0.316800000000     0.279000000000     0.305400000000     0          
F6?      F      0.272100000000     0.218900000000     0.372700000000     0          
C16?     C      0.309200000000     0.222500000000     0.319300000000     0          
I1       I      0.401000000000     0.157900000000     0.500000000000     0          
N1       N      0.500000000000     0.052400000000     0.422600000000     0          
C1       C      0.500000000000     0.053100000000     0.348700000000     0          
H1       H      0.500000000000     0.088900000000     0.323100000000     0          
O1       O      0.500000000000     0.056400000000     0.210200000000     0          
Zr1      Zr     0.500000000000     0.075670000000     0.093320000000     0          
C13?     C      0.500000000000     0.947600000000     0.422600000000     0          
C2       C      0.500000000000     0.000000000000     0.460000000000     0          
C3       C      0.500000000000     0.000000000000     0.311700000000     0          
C4       C      0.500000000000     0.000000000000     0.231400000000     0          
O3       O      0.446300000000     0.000000000000     0.094000000000     0          
O5       O      0.554100000000     0.077900000000     0.000000000000     0          
O2       O      0.895600000000     0.412400000000     0.632900000000     0          
C5       C      0.909000000000     0.358400000000     0.618600000000     0          
O6       O      0.942400000000     0.341300000000     0.572700000000     0          
C6       C      0.874300000000     0.314900000000     0.657400000000     0          
C7       C      0.872400000000     0.257700000000     0.633500000000     0          
C8       C      0.843500000000     0.331200000000     0.717700000000     0          
C9       C      0.839300000000     0.216400000000     0.670400000000     0          
H2       H      0.893600000000     0.246700000000     0.592200000000     0          
H3       H      0.844900000000     0.370300000000     0.733900000000     0          
C10      C      0.810500000000     0.290100000000     0.754600000000     0          
C11      C      0.808500000000     0.232700000000     0.730700000000     0          
C12      C      0.838200000000     0.155300000000     0.642900000000     0          
F1       F      0.786900000000     0.142000000000     0.613400000000     0          
F2       F      0.847300000000     0.115300000000     0.692200000000     0          
F3       F      0.878000000000     0.146600000000     0.592400000000     0          
F4?      F      0.796300000000     0.360300000000     0.844100000000     0          
F5?      F      0.721000000000     0.316800000000     0.805400000000     0          
F6?      F      0.781100000000     0.272100000000     0.872700000000     0          
C16?     C      0.777500000000     0.309200000000     0.819300000000     0          
I1       I      0.842100000000     0.401000000000     0.000000000000     0          
N1       N      0.947600000000     0.500000000000     0.922600000000     0          
C1       C      0.946900000000     0.500000000000     0.848700000000     0          
H1       H      0.911100000000     0.500000000000     0.823100000000     0          
O1       O      0.943600000000     0.500000000000     0.710200000000     0          
Zr1      Zr     0.924330000000     0.500000000000     0.593320000000     0          
C13?     C      0.052400000000     0.500000000000     0.922600000000     0          
C2       C      0.000000000000     0.500000000000     0.960000000000     0          
C3       C      0.000000000000     0.500000000000     0.811700000000     0          
C4       C      0.000000000000     0.500000000000     0.731400000000     0          
O3       O      0.000000000000     0.446300000000     0.594000000000     0          
O5       O      0.922100000000     0.554100000000     0.500000000000     0          
O2       O      0.587600000000     0.895600000000     0.132900000000     0          
C5       C      0.641600000000     0.909000000000     0.118600000000     0          
O6       O      0.658700000000     0.942400000000     0.072700000000     0          
C6       C      0.685100000000     0.874300000000     0.157400000000     0          
C7       C      0.742300000000     0.872400000000     0.133500000000     0          
C8       C      0.668800000000     0.843500000000     0.217700000000     0          
C9       C      0.783600000000     0.839300000000     0.170400000000     0          
H2       H      0.753300000000     0.893600000000     0.092200000000     0          
H3       H      0.629700000000     0.844900000000     0.233900000000     0          
C10      C      0.709900000000     0.810500000000     0.254600000000     0          
C11      C      0.767300000000     0.808500000000     0.230700000000     0          
C12      C      0.844700000000     0.838200000000     0.142900000000     0          
F1       F      0.858000000000     0.786900000000     0.113400000000     0          
F2       F      0.884700000000     0.847300000000     0.192200000000     0          
F3       F      0.853400000000     0.878000000000     0.092400000000     0          
F4?      F      0.639700000000     0.796300000000     0.344100000000     0          
F5?      F      0.683200000000     0.721000000000     0.305400000000     0          
F6?      F      0.727900000000     0.781100000000     0.372700000000     0          
C16?     C      0.690800000000     0.777500000000     0.319300000000     0          
I1       I      0.599000000000     0.842100000000     0.500000000000     0          
C1       C      0.500000000000     0.946900000000     0.348700000000     0          
H1       H      0.500000000000     0.911100000000     0.323100000000     0          
O1       O      0.500000000000     0.943600000000     0.210200000000     0          
Zr1      Zr     0.500000000000     0.924330000000     0.093320000000     0          
O3       O      0.553700000000     0.000000000000     0.094000000000     0          
O5       O      0.445900000000     0.922100000000     0.000000000000     0          
O2       O      0.104400000000     0.587600000000     0.632900000000     0          
C5       C      0.091000000000     0.641600000000     0.618600000000     0          
O6       O      0.057600000000     0.658700000000     0.572700000000     0          
C6       C      0.125700000000     0.685100000000     0.657400000000     0          
C7       C      0.127600000000     0.742300000000     0.633500000000     0          
C8       C      0.156500000000     0.668800000000     0.717700000000     0          
C9       C      0.160700000000     0.783600000000     0.670400000000     0          
H2       H      0.106400000000     0.753300000000     0.592200000000     0          
H3       H      0.155100000000     0.629700000000     0.733900000000     0          
C10      C      0.189500000000     0.709900000000     0.754600000000     0          
C11      C      0.191500000000     0.767300000000     0.730700000000     0          
C12      C      0.161800000000     0.844700000000     0.642900000000     0          
F1       F      0.213100000000     0.858000000000     0.613400000000     0          
F2       F      0.152700000000     0.884700000000     0.692200000000     0          
F3       F      0.122000000000     0.853400000000     0.592400000000     0          
F4?      F      0.203700000000     0.639700000000     0.844100000000     0          
F5?      F      0.279000000000     0.683200000000     0.805400000000     0          
F6?      F      0.218900000000     0.727900000000     0.872700000000     0          
C16?     C      0.222500000000     0.690800000000     0.819300000000     0          
I1       I      0.157900000000     0.599000000000     0.000000000000     0          
C1       C      0.053100000000     0.500000000000     0.848700000000     0          
H1       H      0.088900000000     0.500000000000     0.823100000000     0          
O1       O      0.056400000000     0.500000000000     0.710200000000     0          
Zr1      Zr     0.075670000000     0.500000000000     0.593320000000     0          
O3       O      0.000000000000     0.553700000000     0.594000000000     0          
O5       O      0.077900000000     0.445900000000     0.500000000000     0          
O2       O      0.587600000000     0.104400000000     0.132900000000     0          
C5       C      0.641600000000     0.091000000000     0.118600000000     0          
O6       O      0.658700000000     0.057600000000     0.072700000000     0          
C6       C      0.685100000000     0.125700000000     0.157400000000     0          
C7       C      0.742300000000     0.127600000000     0.133500000000     0          
C8       C      0.668800000000     0.156500000000     0.217700000000     0          
C9       C      0.783600000000     0.160700000000     0.170400000000     0          
H2       H      0.753300000000     0.106400000000     0.092200000000     0          
H3       H      0.629700000000     0.155100000000     0.233900000000     0          
C10      C      0.709900000000     0.189500000000     0.254600000000     0          
C11      C      0.767300000000     0.191500000000     0.230700000000     0          
C12      C      0.844700000000     0.161800000000     0.142900000000     0          
F1       F      0.858000000000     0.213100000000     0.113400000000     0          
F2       F      0.884700000000     0.152700000000     0.192200000000     0          
F3       F      0.853400000000     0.122000000000     0.092400000000     0          
F4?      F      0.639700000000     0.203700000000     0.344100000000     0          
F5?      F      0.683200000000     0.279000000000     0.305400000000     0          
F6?      F      0.727900000000     0.218900000000     0.372700000000     0          
C16?     C      0.690800000000     0.222500000000     0.319300000000     0          
O2       O      0.895600000000     0.587600000000     0.632900000000     0          
C5       C      0.909000000000     0.641600000000     0.618600000000     0          
O6       O      0.942400000000     0.658700000000     0.572700000000     0          
C6       C      0.874300000000     0.685100000000     0.657400000000     0          
C7       C      0.872400000000     0.742300000000     0.633500000000     0          
C8       C      0.843500000000     0.668800000000     0.717700000000     0          
C9       C      0.839300000000     0.783600000000     0.670400000000     0          
H2       H      0.893600000000     0.753300000000     0.592200000000     0          
H3       H      0.844900000000     0.629700000000     0.733900000000     0          
C10      C      0.810500000000     0.709900000000     0.754600000000     0          
C11      C      0.808500000000     0.767300000000     0.730700000000     0          
C12      C      0.838200000000     0.844700000000     0.642900000000     0          
F1       F      0.786900000000     0.858000000000     0.613400000000     0          
F2       F      0.847300000000     0.884700000000     0.692200000000     0          
F3       F      0.878000000000     0.853400000000     0.592400000000     0          
F4?      F      0.796300000000     0.639700000000     0.844100000000     0          
F5?      F      0.721000000000     0.683200000000     0.805400000000     0          
F6?      F      0.781100000000     0.727900000000     0.872700000000     0          
C16?     C      0.777500000000     0.690800000000     0.819300000000     0          
O2       O      0.412400000000     0.895600000000     0.132900000000     0          
C5       C      0.358400000000     0.909000000000     0.118600000000     0          
O6       O      0.341300000000     0.942400000000     0.072700000000     0          
C6       C      0.314900000000     0.874300000000     0.157400000000     0          
C7       C      0.257700000000     0.872400000000     0.133500000000     0          
C8       C      0.331200000000     0.843500000000     0.217700000000     0          
C9       C      0.216400000000     0.839300000000     0.170400000000     0          
H2       H      0.246700000000     0.893600000000     0.092200000000     0          
H3       H      0.370300000000     0.844900000000     0.233900000000     0          
C10      C      0.290100000000     0.810500000000     0.254600000000     0          
C11      C      0.232700000000     0.808500000000     0.230700000000     0          
C12      C      0.155300000000     0.838200000000     0.142900000000     0          
F1       F      0.142000000000     0.786900000000     0.113400000000     0          
F2       F      0.115300000000     0.847300000000     0.192200000000     0          
F3       F      0.146600000000     0.878000000000     0.092400000000     0          
F4?      F      0.360300000000     0.796300000000     0.344100000000     0          
F5?      F      0.316800000000     0.721000000000     0.305400000000     0          
F6?      F      0.272100000000     0.781100000000     0.372700000000     0          
C16?     C      0.309200000000     0.777500000000     0.319300000000     0          
O2       O      0.104400000000     0.412400000000     0.632900000000     0          
C5       C      0.091000000000     0.358400000000     0.618600000000     0          
O6       O      0.057600000000     0.341300000000     0.572700000000     0          
C6       C      0.125700000000     0.314900000000     0.657400000000     0          
C7       C      0.127600000000     0.257700000000     0.633500000000     0          
C8       C      0.156500000000     0.331200000000     0.717700000000     0          
C9       C      0.160700000000     0.216400000000     0.670400000000     0          
H2       H      0.106400000000     0.246700000000     0.592200000000     0          
H3       H      0.155100000000     0.370300000000     0.733900000000     0          
C10      C      0.189500000000     0.290100000000     0.754600000000     0          
C11      C      0.191500000000     0.232700000000     0.730700000000     0          
C12      C      0.161800000000     0.155300000000     0.642900000000     0          
F1       F      0.213100000000     0.142000000000     0.613400000000     0          
F2       F      0.152700000000     0.115300000000     0.692200000000     0          
F3       F      0.122000000000     0.146600000000     0.592400000000     0          
F4?      F      0.203700000000     0.360300000000     0.844100000000     0          
F5?      F      0.279000000000     0.316800000000     0.805400000000     0          
F6?      F      0.218900000000     0.272100000000     0.872700000000     0          
C16?     C      0.222500000000     0.309200000000     0.819300000000     0          
O2       O      0.587600000000     0.895600000000     0.867100000000     0          
C5       C      0.641600000000     0.909000000000     0.881400000000     0          
O6       O      0.658700000000     0.942400000000     0.927300000000     0          
C6       C      0.685100000000     0.874300000000     0.842600000000     0          
C7       C      0.742300000000     0.872400000000     0.866500000000     0          
C8       C      0.668800000000     0.843500000000     0.782300000000     0          
C9       C      0.783600000000     0.839300000000     0.829600000000     0          
H2       H      0.753300000000     0.893600000000     0.907800000000     0          
H3       H      0.629700000000     0.844900000000     0.766100000000     0          
C10      C      0.709900000000     0.810500000000     0.745400000000     0          
C11      C      0.767300000000     0.808500000000     0.769300000000     0          
C12      C      0.844700000000     0.838200000000     0.857100000000     0          
F1       F      0.858000000000     0.786900000000     0.886600000000     0          
F2       F      0.884700000000     0.847300000000     0.807800000000     0          
F3       F      0.853400000000     0.878000000000     0.907600000000     0          
F4?      F      0.639700000000     0.796300000000     0.655900000000     0          
F5?      F      0.683200000000     0.721000000000     0.694600000000     0          
F6?      F      0.727900000000     0.781100000000     0.627300000000     0          
C16?     C      0.690800000000     0.777500000000     0.680700000000     0          
O2       O      0.104400000000     0.587600000000     0.367100000000     0          
C5       C      0.091000000000     0.641600000000     0.381400000000     0          
O6       O      0.057600000000     0.658700000000     0.427300000000     0          
C6       C      0.125700000000     0.685100000000     0.342600000000     0          
C7       C      0.127600000000     0.742300000000     0.366500000000     0          
C8       C      0.156500000000     0.668800000000     0.282300000000     0          
C9       C      0.160700000000     0.783600000000     0.329600000000     0          
H2       H      0.106400000000     0.753300000000     0.407800000000     0          
H3       H      0.155100000000     0.629700000000     0.266100000000     0          
C10      C      0.189500000000     0.709900000000     0.245400000000     0          
C11      C      0.191500000000     0.767300000000     0.269300000000     0          
C12      C      0.161800000000     0.844700000000     0.357100000000     0          
F1       F      0.213100000000     0.858000000000     0.386600000000     0          
F2       F      0.152700000000     0.884700000000     0.307800000000     0          
F3       F      0.122000000000     0.853400000000     0.407600000000     0          
F4?      F      0.203700000000     0.639700000000     0.155900000000     0          
F5?      F      0.279000000000     0.683200000000     0.194600000000     0          
F6?      F      0.218900000000     0.727900000000     0.127300000000     0          
C16?     C      0.222500000000     0.690800000000     0.180700000000     0          
O2       O      0.412400000000     0.104400000000     0.867100000000     0          
C5       C      0.358400000000     0.091000000000     0.881400000000     0          
O6       O      0.341300000000     0.057600000000     0.927300000000     0          
C6       C      0.314900000000     0.125700000000     0.842600000000     0          
C7       C      0.257700000000     0.127600000000     0.866500000000     0          
C8       C      0.331200000000     0.156500000000     0.782300000000     0          
C9       C      0.216400000000     0.160700000000     0.829600000000     0          
H2       H      0.246700000000     0.106400000000     0.907800000000     0          
H3       H      0.370300000000     0.155100000000     0.766100000000     0          
C10      C      0.290100000000     0.189500000000     0.745400000000     0          
C11      C      0.232700000000     0.191500000000     0.769300000000     0          
C12      C      0.155300000000     0.161800000000     0.857100000000     0          
F1       F      0.142000000000     0.213100000000     0.886600000000     0          
F2       F      0.115300000000     0.152700000000     0.807800000000     0          
F3       F      0.146600000000     0.122000000000     0.907600000000     0          
F4?      F      0.360300000000     0.203700000000     0.655900000000     0          
F5?      F      0.316800000000     0.279000000000     0.694600000000     0          
F6?      F      0.272100000000     0.218900000000     0.627300000000     0          
C16?     C      0.309200000000     0.222500000000     0.680700000000     0          
O2       O      0.895600000000     0.412400000000     0.367100000000     0          
C5       C      0.909000000000     0.358400000000     0.381400000000     0          
O6       O      0.942400000000     0.341300000000     0.427300000000     0          
C6       C      0.874300000000     0.314900000000     0.342600000000     0          
C7       C      0.872400000000     0.257700000000     0.366500000000     0          
C8       C      0.843500000000     0.331200000000     0.282300000000     0          
C9       C      0.839300000000     0.216400000000     0.329600000000     0          
H2       H      0.893600000000     0.246700000000     0.407800000000     0          
H3       H      0.844900000000     0.370300000000     0.266100000000     0          
C10      C      0.810500000000     0.290100000000     0.245400000000     0          
C11      C      0.808500000000     0.232700000000     0.269300000000     0          
C12      C      0.838200000000     0.155300000000     0.357100000000     0          
F1       F      0.786900000000     0.142000000000     0.386600000000     0          
F2       F      0.847300000000     0.115300000000     0.307800000000     0          
F3       F      0.878000000000     0.146600000000     0.407600000000     0          
F4?      F      0.796300000000     0.360300000000     0.155900000000     0          
F5?      F      0.721000000000     0.316800000000     0.194600000000     0          
F6?      F      0.781100000000     0.272100000000     0.127300000000     0          
C16?     C      0.777500000000     0.309200000000     0.180700000000     0          


