data_OFAWID

_audit_creation_method RASPA-1.0
_audit_creation_date 2020-11-2
_audit_author_name 'Rocio Bueno-Perez'

_cell_length_a    22.53
_cell_length_b    25.38
_cell_length_c    16.9
_cell_angle_alpha 90
_cell_angle_beta  90
_cell_angle_gamma 90
_cell_volume      9663.61

_symmetry_cell_setting          triclinic
_symmetry_space_group_name_Hall 'P 1'
_symmetry_space_group_name_H-M  'P 1'
_symmetry_Int_Tables_number     1

_symmetry_equiv_pos_as_xyz 'x,y,z'

loop_
_atom_site_label
_atom_site_type_symbol
_atom_site_fract_x
_atom_site_fract_y
_atom_site_fract_z
_atom_site_charge
O1       O      0.054700000000     0.299300000000     0.198100000000     0          
O2       O      0.051600000000     0.298500000000     0.050900000000     0          
O3       O      0.157800000000     0.326900000000     0.125200000000     0          
O4       O      0.090600000000     0.389200000000     0.122800000000     0          
C5       C      0.142700000000     0.375800000000     0.122900000000     0          
C6       C      0.189700000000     0.414800000000     0.118600000000     0          
C7       C      0.174500000000     0.468300000000     0.114400000000     0          
H8       H      0.134800000000     0.478200000000     0.111500000000     0          
C9       C      0.220400000000     0.508100000000     0.114700000000     0          
C10      C      0.248800000000     0.399100000000     0.114100000000     0          
H11      H      0.258200000000     0.363500000000     0.115500000000     0          
C12      C      0.295200000000     0.437600000000     0.107400000000     0          
H13      H      0.334400000000     0.427400000000     0.098600000000     0          
H14      H      0.183300000000     0.225300000000     0.837300000000     0          
H15      H      0.230100000000     0.240100000000     0.902400000000     0          
H16      H      0.196700000000     0.284600000000     0.856000000000     0          
O17      O      0.554700000000     0.799300000000     0.198100000000     0          
O18      O      0.551600000000     0.798500000000     0.050900000000     0          
O19      O      0.657800000000     0.826900000000     0.125200000000     0          
O20      O      0.590600000000     0.889200000000     0.122800000000     0          
C21      C      0.642700000000     0.875800000000     0.122900000000     0          
C22      C      0.689700000000     0.914800000000     0.118600000000     0          
C23      C      0.674500000000     0.968300000000     0.114400000000     0          
H24      H      0.634800000000     0.978200000000     0.111500000000     0          
C25      C      0.720400000000     0.008100000000     0.114700000000     0          
C26      C      0.748800000000     0.899100000000     0.114100000000     0          
H27      H      0.758200000000     0.863500000000     0.115500000000     0          
C28      C      0.795200000000     0.937600000000     0.107400000000     0          
H29      H      0.834400000000     0.927400000000     0.098600000000     0          
H30      H      0.683300000000     0.725300000000     0.837300000000     0          
H31      H      0.730100000000     0.740100000000     0.902400000000     0          
H32      H      0.696700000000     0.784600000000     0.856000000000     0          
O33      O      0.945300000000     0.200700000000     0.198100000000     0          
O34      O      0.948400000000     0.201500000000     0.050900000000     0          
O35      O      0.842200000000     0.173100000000     0.125200000000     0          
O36      O      0.909400000000     0.110800000000     0.122800000000     0          
C37      C      0.857300000000     0.124200000000     0.122900000000     0          
C38      C      0.810300000000     0.085200000000     0.118600000000     0          
C39      C      0.825500000000     0.031700000000     0.114400000000     0          
H40      H      0.865200000000     0.021800000000     0.111500000000     0          
C41      C      0.779600000000     0.991900000000     0.114700000000     0          
C42      C      0.751200000000     0.100900000000     0.114100000000     0          
H43      H      0.741800000000     0.136500000000     0.115500000000     0          
C44      C      0.704800000000     0.062400000000     0.107400000000     0          
H45      H      0.665600000000     0.072600000000     0.098600000000     0          
H46      H      0.816700000000     0.274700000000     0.837300000000     0          
H47      H      0.803300000000     0.215400000000     0.856000000000     0          
O48      O      0.445300000000     0.700700000000     0.198100000000     0          
O49      O      0.448400000000     0.701500000000     0.050900000000     0          
O50      O      0.342200000000     0.673100000000     0.125200000000     0          
O51      O      0.409400000000     0.610800000000     0.122800000000     0          
C52      C      0.357300000000     0.624200000000     0.122900000000     0          
C53      C      0.310300000000     0.585200000000     0.118600000000     0          
C54      C      0.325500000000     0.531700000000     0.114400000000     0          
H55      H      0.365200000000     0.521800000000     0.111500000000     0          
C56      C      0.279600000000     0.491900000000     0.114700000000     0          
C57      C      0.251200000000     0.600900000000     0.114100000000     0          
H58      H      0.241800000000     0.636500000000     0.115500000000     0          
C59      C      0.204800000000     0.562400000000     0.107400000000     0          
H60      H      0.165600000000     0.572600000000     0.098600000000     0          
H61      H      0.303300000000     0.715400000000     0.856000000000     0          
O62      O      0.945300000000     0.799300000000     0.801900000000     0          
O63      O      0.948400000000     0.798500000000     0.949100000000     0          
O64      O      0.842200000000     0.826900000000     0.874800000000     0          
O65      O      0.909400000000     0.889200000000     0.877200000000     0          
C66      C      0.857300000000     0.875800000000     0.877100000000     0          
C67      C      0.810300000000     0.914800000000     0.881400000000     0          
C68      C      0.825500000000     0.968300000000     0.885600000000     0          
H69      H      0.865200000000     0.978200000000     0.888500000000     0          
C70      C      0.779600000000     0.008100000000     0.885300000000     0          
C71      C      0.751200000000     0.899100000000     0.885900000000     0          
H72      H      0.741800000000     0.863500000000     0.884500000000     0          
C73      C      0.704800000000     0.937600000000     0.892600000000     0          
H74      H      0.665600000000     0.927400000000     0.901400000000     0          
O75      O      0.445300000000     0.299300000000     0.801900000000     0          
O76      O      0.448400000000     0.298500000000     0.949100000000     0          
O77      O      0.342200000000     0.326900000000     0.874800000000     0          
O78      O      0.409400000000     0.389200000000     0.877200000000     0          
C79      C      0.357300000000     0.375800000000     0.877100000000     0          
C80      C      0.310300000000     0.414800000000     0.881400000000     0          
C81      C      0.325500000000     0.468300000000     0.885600000000     0          
H82      H      0.365200000000     0.478200000000     0.888500000000     0          
C83      C      0.279600000000     0.508100000000     0.885300000000     0          
C84      C      0.251200000000     0.399100000000     0.885900000000     0          
H85      H      0.241800000000     0.363500000000     0.884500000000     0          
C86      C      0.204800000000     0.437600000000     0.892600000000     0          
H87      H      0.165600000000     0.427400000000     0.901400000000     0          
H88      H      0.316700000000     0.225300000000     0.162700000000     0          
O89      O      0.054700000000     0.700700000000     0.801900000000     0          
O90      O      0.051600000000     0.701500000000     0.949100000000     0          
O91      O      0.157800000000     0.673100000000     0.874800000000     0          
O92      O      0.090600000000     0.610800000000     0.877200000000     0          
C93      C      0.142700000000     0.624200000000     0.877100000000     0          
C94      C      0.189700000000     0.585200000000     0.881400000000     0          
C95      C      0.174500000000     0.531700000000     0.885600000000     0          
H96      H      0.134800000000     0.521800000000     0.888500000000     0          
C97      C      0.220400000000     0.491900000000     0.885300000000     0          
C98      C      0.248800000000     0.600900000000     0.885900000000     0          
H99      H      0.258200000000     0.636500000000     0.884500000000     0          
C100     C      0.295200000000     0.562400000000     0.892600000000     0          
H101     H      0.334400000000     0.572600000000     0.901400000000     0          
O102     O      0.554700000000     0.200700000000     0.801900000000     0          
O103     O      0.551600000000     0.201500000000     0.949100000000     0          
O104     O      0.657800000000     0.173100000000     0.874800000000     0          
O105     O      0.590600000000     0.110800000000     0.877200000000     0          
C106     C      0.642700000000     0.124200000000     0.877100000000     0          
C107     C      0.689700000000     0.085200000000     0.881400000000     0          
C108     C      0.674500000000     0.031700000000     0.885600000000     0          
H109     H      0.634800000000     0.021800000000     0.888500000000     0          
C110     C      0.720400000000     0.991900000000     0.885300000000     0          
C111     C      0.748800000000     0.100900000000     0.885900000000     0          
H112     H      0.758200000000     0.136500000000     0.884500000000     0          
C113     C      0.795200000000     0.062400000000     0.892600000000     0          
H114     H      0.834400000000     0.072600000000     0.901400000000     0          
O115     O      0.945300000000     0.700700000000     0.801900000000     0          
O116     O      0.948400000000     0.701500000000     0.949100000000     0          
O117     O      0.842200000000     0.673100000000     0.874800000000     0          
O118     O      0.909400000000     0.610800000000     0.877200000000     0          
C119     C      0.857300000000     0.624200000000     0.877100000000     0          
C120     C      0.810300000000     0.585200000000     0.881400000000     0          
C121     C      0.825500000000     0.531700000000     0.885600000000     0          
H122     H      0.865200000000     0.521800000000     0.888500000000     0          
C123     C      0.779600000000     0.491900000000     0.885300000000     0          
C124     C      0.751200000000     0.600900000000     0.885900000000     0          
H125     H      0.741800000000     0.636500000000     0.884500000000     0          
C126     C      0.704800000000     0.562400000000     0.892600000000     0          
H127     H      0.665600000000     0.572600000000     0.901400000000     0          
H128     H      0.816700000000     0.774700000000     0.162700000000     0          
H129     H      0.769900000000     0.759900000000     0.097600000000     0          
H130     H      0.803300000000     0.715400000000     0.144000000000     0          
O131     O      0.445300000000     0.200700000000     0.801900000000     0          
O132     O      0.448400000000     0.201500000000     0.949100000000     0          
O133     O      0.342200000000     0.173100000000     0.874800000000     0          
O134     O      0.409400000000     0.110800000000     0.877200000000     0          
C135     C      0.357300000000     0.124200000000     0.877100000000     0          
C136     C      0.310300000000     0.085200000000     0.881400000000     0          
C137     C      0.325500000000     0.031700000000     0.885600000000     0          
H138     H      0.365200000000     0.021800000000     0.888500000000     0          
C139     C      0.279600000000     0.991900000000     0.885300000000     0          
C140     C      0.251200000000     0.100900000000     0.885900000000     0          
H141     H      0.241800000000     0.136500000000     0.884500000000     0          
C142     C      0.204800000000     0.062400000000     0.892600000000     0          
H143     H      0.165600000000     0.072600000000     0.901400000000     0          
H144     H      0.316700000000     0.274700000000     0.162700000000     0          
H145     H      0.269900000000     0.259900000000     0.097600000000     0          
O146     O      0.054700000000     0.799300000000     0.801900000000     0          
O147     O      0.051600000000     0.798500000000     0.949100000000     0          
O148     O      0.157800000000     0.826900000000     0.874800000000     0          
O149     O      0.090600000000     0.889200000000     0.877200000000     0          
C150     C      0.142700000000     0.875800000000     0.877100000000     0          
C151     C      0.189700000000     0.914800000000     0.881400000000     0          
C152     C      0.174500000000     0.968300000000     0.885600000000     0          
H153     H      0.134800000000     0.978200000000     0.888500000000     0          
C154     C      0.220400000000     0.008100000000     0.885300000000     0          
C155     C      0.248800000000     0.899100000000     0.885900000000     0          
H156     H      0.258200000000     0.863500000000     0.884500000000     0          
C157     C      0.295200000000     0.937600000000     0.892600000000     0          
H158     H      0.334400000000     0.927400000000     0.901400000000     0          
H159     H      0.183300000000     0.725300000000     0.162700000000     0          
H160     H      0.230100000000     0.740100000000     0.097600000000     0          
H161     H      0.196700000000     0.784600000000     0.144000000000     0          
O162     O      0.554700000000     0.299300000000     0.801900000000     0          
O163     O      0.551600000000     0.298500000000     0.949100000000     0          
O164     O      0.657800000000     0.326900000000     0.874800000000     0          
O165     O      0.590600000000     0.389200000000     0.877200000000     0          
C166     C      0.642700000000     0.375800000000     0.877100000000     0          
C167     C      0.689700000000     0.414800000000     0.881400000000     0          
C168     C      0.674500000000     0.468300000000     0.885600000000     0          
H169     H      0.634800000000     0.478200000000     0.888500000000     0          
C170     C      0.720400000000     0.508100000000     0.885300000000     0          
C171     C      0.748800000000     0.399100000000     0.885900000000     0          
H172     H      0.758200000000     0.363500000000     0.884500000000     0          
C173     C      0.795200000000     0.437600000000     0.892600000000     0          
H174     H      0.834400000000     0.427400000000     0.901400000000     0          
H175     H      0.683300000000     0.225300000000     0.162700000000     0          
H176     H      0.730100000000     0.240100000000     0.097600000000     0          
H177     H      0.696700000000     0.284600000000     0.144000000000     0          
O178     O      0.054700000000     0.200700000000     0.198100000000     0          
O179     O      0.051600000000     0.201500000000     0.050900000000     0          
O180     O      0.157800000000     0.173100000000     0.125200000000     0          
O181     O      0.090600000000     0.110800000000     0.122800000000     0          
C182     C      0.142700000000     0.124200000000     0.122900000000     0          
C183     C      0.189700000000     0.085200000000     0.118600000000     0          
C184     C      0.174500000000     0.031700000000     0.114400000000     0          
H185     H      0.134800000000     0.021800000000     0.111500000000     0          
C186     C      0.220400000000     0.991900000000     0.114700000000     0          
C187     C      0.248800000000     0.100900000000     0.114100000000     0          
H188     H      0.258200000000     0.136500000000     0.115500000000     0          
C189     C      0.295200000000     0.062400000000     0.107400000000     0          
H190     H      0.334400000000     0.072600000000     0.098600000000     0          
O191     O      0.554700000000     0.700700000000     0.198100000000     0          
O192     O      0.551600000000     0.701500000000     0.050900000000     0          
O193     O      0.657800000000     0.673100000000     0.125200000000     0          
O194     O      0.590600000000     0.610800000000     0.122800000000     0          
C195     C      0.642700000000     0.624200000000     0.122900000000     0          
C196     C      0.689700000000     0.585200000000     0.118600000000     0          
C197     C      0.674500000000     0.531700000000     0.114400000000     0          
H198     H      0.634800000000     0.521800000000     0.111500000000     0          
C199     C      0.720400000000     0.491900000000     0.114700000000     0          
C200     C      0.748800000000     0.600900000000     0.114100000000     0          
H201     H      0.758200000000     0.636500000000     0.115500000000     0          
C202     C      0.795200000000     0.562400000000     0.107400000000     0          
H203     H      0.834400000000     0.572600000000     0.098600000000     0          
O204     O      0.945300000000     0.299300000000     0.198100000000     0          
O205     O      0.948400000000     0.298500000000     0.050900000000     0          
O206     O      0.842200000000     0.326900000000     0.125200000000     0          
O207     O      0.909400000000     0.389200000000     0.122800000000     0          
C208     C      0.857300000000     0.375800000000     0.122900000000     0          
C209     C      0.810300000000     0.414800000000     0.118600000000     0          
C210     C      0.825500000000     0.468300000000     0.114400000000     0          
H211     H      0.865200000000     0.478200000000     0.111500000000     0          
C212     C      0.779600000000     0.508100000000     0.114700000000     0          
C213     C      0.751200000000     0.399100000000     0.114100000000     0          
H214     H      0.741800000000     0.363500000000     0.115500000000     0          
C215     C      0.704800000000     0.437600000000     0.107400000000     0          
H216     H      0.665600000000     0.427400000000     0.098600000000     0          
H217     H      0.769900000000     0.240100000000     0.902400000000     0          
O218     O      0.445300000000     0.799300000000     0.198100000000     0          
O219     O      0.448400000000     0.798500000000     0.050900000000     0          
O220     O      0.342200000000     0.826900000000     0.125200000000     0          
O221     O      0.409400000000     0.889200000000     0.122800000000     0          
C222     C      0.357300000000     0.875800000000     0.122900000000     0          
C223     C      0.310300000000     0.914800000000     0.118600000000     0          
C224     C      0.325500000000     0.968300000000     0.114400000000     0          
H225     H      0.365200000000     0.978200000000     0.111500000000     0          
C226     C      0.279600000000     0.008100000000     0.114700000000     0          
C227     C      0.251200000000     0.899100000000     0.114100000000     0          
H228     H      0.241800000000     0.863500000000     0.115500000000     0          
C229     C      0.204800000000     0.937600000000     0.107400000000     0          
H230     H      0.165600000000     0.927400000000     0.098600000000     0          
H231     H      0.269900000000     0.740100000000     0.902400000000     0          
H232     H      0.303300000000     0.784600000000     0.856000000000     0          
Zr233    Zr     0.000000000000     0.348220000000     0.123180000000     0          
Zr234    Zr     0.500000000000     0.848220000000     0.123180000000     0          
Zr235    Zr     0.000000000000     0.151780000000     0.123180000000     0          
Zr236    Zr     0.500000000000     0.651780000000     0.123180000000     0          
Zr237    Zr     0.000000000000     0.848220000000     0.876820000000     0          
Zr238    Zr     0.500000000000     0.348220000000     0.876820000000     0          
Zr239    Zr     0.000000000000     0.651780000000     0.876820000000     0          
Zr240    Zr     0.500000000000     0.151780000000     0.876820000000     0          
Zr241    Zr     0.000000000000     0.250000000000     0.975940000000     0          
Zr242    Zr     0.000000000000     0.250000000000     0.272350000000     0          
Zr243    Zr     0.500000000000     0.750000000000     0.975940000000     0          
Zr244    Zr     0.500000000000     0.750000000000     0.272350000000     0          
Zr245    Zr     0.000000000000     0.750000000000     0.024060000000     0          
Zr246    Zr     0.000000000000     0.750000000000     0.727650000000     0          
Zr247    Zr     0.500000000000     0.250000000000     0.024060000000     0          
Zr248    Zr     0.500000000000     0.250000000000     0.727650000000     0          
Zr249    Zr     0.110120000000     0.250000000000     0.124150000000     0          
O250     O      0.160100000000     0.250000000000     0.238000000000     0          
O251     O      0.093200000000     0.250000000000     0.328400000000     0          
O252     O      0.161000000000     0.250000000000     0.015500000000     0          
O253     O      0.091700000000     0.250000000000     0.917800000000     0          
C254     C      0.146400000000     0.250000000000     0.306300000000     0          
C255     C      0.191500000000     0.250000000000     0.370800000000     0          
C256     C      0.252200000000     0.250000000000     0.349100000000     0          
H257     H      0.263400000000     0.250000000000     0.296100000000     0          
C258     C      0.293500000000     0.250000000000     0.407100000000     0          
H259     H      0.333200000000     0.250000000000     0.392100000000     0          
C260     C      0.175900000000     0.250000000000     0.452400000000     0          
H261     H      0.136100000000     0.250000000000     0.466800000000     0          
C262     C      0.219300000000     0.250000000000     0.510800000000     0          
C263     C      0.143300000000     0.250000000000     0.941900000000     0          
C264     C      0.193100000000     0.250000000000     0.878300000000     0          
Zr265    Zr     0.610120000000     0.750000000000     0.124150000000     0          
O266     O      0.660100000000     0.750000000000     0.238000000000     0          
O267     O      0.593200000000     0.750000000000     0.328400000000     0          
O268     O      0.661000000000     0.750000000000     0.015500000000     0          
O269     O      0.591700000000     0.750000000000     0.917800000000     0          
C270     C      0.646400000000     0.750000000000     0.306300000000     0          
C271     C      0.691500000000     0.750000000000     0.370800000000     0          
C272     C      0.752200000000     0.750000000000     0.349100000000     0          
H273     H      0.763400000000     0.750000000000     0.296100000000     0          
C274     C      0.793500000000     0.750000000000     0.407100000000     0          
H275     H      0.833200000000     0.750000000000     0.392100000000     0          
C276     C      0.675900000000     0.750000000000     0.452400000000     0          
H277     H      0.636100000000     0.750000000000     0.466800000000     0          
C278     C      0.719300000000     0.750000000000     0.510800000000     0          
C279     C      0.643300000000     0.750000000000     0.941900000000     0          
C280     C      0.693100000000     0.750000000000     0.878300000000     0          
Zr281    Zr     0.889880000000     0.250000000000     0.124150000000     0          
O282     O      0.839900000000     0.250000000000     0.238000000000     0          
O283     O      0.906800000000     0.250000000000     0.328400000000     0          
O284     O      0.839000000000     0.250000000000     0.015500000000     0          
O285     O      0.908300000000     0.250000000000     0.917800000000     0          
C286     C      0.853600000000     0.250000000000     0.306300000000     0          
C287     C      0.808500000000     0.250000000000     0.370800000000     0          
C288     C      0.747800000000     0.250000000000     0.349100000000     0          
H289     H      0.736600000000     0.250000000000     0.296100000000     0          
C290     C      0.706500000000     0.250000000000     0.407100000000     0          
H291     H      0.666800000000     0.250000000000     0.392100000000     0          
C292     C      0.824100000000     0.250000000000     0.452400000000     0          
H293     H      0.863900000000     0.250000000000     0.466800000000     0          
C294     C      0.780700000000     0.250000000000     0.510800000000     0          
C295     C      0.856700000000     0.250000000000     0.941900000000     0          
C296     C      0.806900000000     0.250000000000     0.878300000000     0          
Zr297    Zr     0.389880000000     0.750000000000     0.124150000000     0          
O298     O      0.339900000000     0.750000000000     0.238000000000     0          
O299     O      0.406800000000     0.750000000000     0.328400000000     0          
O300     O      0.339000000000     0.750000000000     0.015500000000     0          
O301     O      0.408300000000     0.750000000000     0.917800000000     0          
C302     C      0.353600000000     0.750000000000     0.306300000000     0          
C303     C      0.308500000000     0.750000000000     0.370800000000     0          
C304     C      0.247800000000     0.750000000000     0.349100000000     0          
H305     H      0.236600000000     0.750000000000     0.296100000000     0          
C306     C      0.206500000000     0.750000000000     0.407100000000     0          
H307     H      0.166800000000     0.750000000000     0.392100000000     0          
C308     C      0.324100000000     0.750000000000     0.452400000000     0          
H309     H      0.363900000000     0.750000000000     0.466800000000     0          
C310     C      0.280700000000     0.750000000000     0.510800000000     0          
C311     C      0.356700000000     0.750000000000     0.941900000000     0          
C312     C      0.306900000000     0.750000000000     0.878300000000     0          
Zr313    Zr     0.889880000000     0.750000000000     0.875850000000     0          
O314     O      0.839900000000     0.750000000000     0.762000000000     0          
O315     O      0.906800000000     0.750000000000     0.671600000000     0          
O316     O      0.839000000000     0.750000000000     0.984500000000     0          
O317     O      0.908300000000     0.750000000000     0.082200000000     0          
C318     C      0.853600000000     0.750000000000     0.693700000000     0          
C319     C      0.808500000000     0.750000000000     0.629200000000     0          
C320     C      0.747800000000     0.750000000000     0.650900000000     0          
H321     H      0.736600000000     0.750000000000     0.703900000000     0          
C322     C      0.706500000000     0.750000000000     0.592900000000     0          
H323     H      0.666800000000     0.750000000000     0.607900000000     0          
C324     C      0.824100000000     0.750000000000     0.547600000000     0          
H325     H      0.863900000000     0.750000000000     0.533200000000     0          
C326     C      0.780700000000     0.750000000000     0.489200000000     0          
C327     C      0.856700000000     0.750000000000     0.058100000000     0          
C328     C      0.806900000000     0.750000000000     0.121700000000     0          
Zr329    Zr     0.389880000000     0.250000000000     0.875850000000     0          
O330     O      0.339900000000     0.250000000000     0.762000000000     0          
O331     O      0.406800000000     0.250000000000     0.671600000000     0          
O332     O      0.339000000000     0.250000000000     0.984500000000     0          
O333     O      0.408300000000     0.250000000000     0.082200000000     0          
C334     C      0.353600000000     0.250000000000     0.693700000000     0          
C335     C      0.308500000000     0.250000000000     0.629200000000     0          
C336     C      0.247800000000     0.250000000000     0.650900000000     0          
H337     H      0.236600000000     0.250000000000     0.703900000000     0          
C338     C      0.206500000000     0.250000000000     0.592900000000     0          
H339     H      0.166800000000     0.250000000000     0.607900000000     0          
C340     C      0.324100000000     0.250000000000     0.547600000000     0          
H341     H      0.363900000000     0.250000000000     0.533200000000     0          
C342     C      0.280700000000     0.250000000000     0.489200000000     0          
C343     C      0.356700000000     0.250000000000     0.058100000000     0          
C344     C      0.306900000000     0.250000000000     0.121700000000     0          
Zr345    Zr     0.110120000000     0.750000000000     0.875850000000     0          
O346     O      0.160100000000     0.750000000000     0.762000000000     0          
O347     O      0.093200000000     0.750000000000     0.671600000000     0          
O348     O      0.161000000000     0.750000000000     0.984500000000     0          
O349     O      0.091700000000     0.750000000000     0.082200000000     0          
C350     C      0.146400000000     0.750000000000     0.693700000000     0          
C351     C      0.191500000000     0.750000000000     0.629200000000     0          
C352     C      0.252200000000     0.750000000000     0.650900000000     0          
H353     H      0.263400000000     0.750000000000     0.703900000000     0          
C354     C      0.293500000000     0.750000000000     0.592900000000     0          
H355     H      0.333200000000     0.750000000000     0.607900000000     0          
C356     C      0.175900000000     0.750000000000     0.547600000000     0          
H357     H      0.136100000000     0.750000000000     0.533200000000     0          
C358     C      0.219300000000     0.750000000000     0.489200000000     0          
C359     C      0.143300000000     0.750000000000     0.058100000000     0          
C360     C      0.193100000000     0.750000000000     0.121700000000     0          
Zr361    Zr     0.610120000000     0.250000000000     0.875850000000     0          
O362     O      0.660100000000     0.250000000000     0.762000000000     0          
O363     O      0.593200000000     0.250000000000     0.671600000000     0          
O364     O      0.661000000000     0.250000000000     0.984500000000     0          
O365     O      0.591700000000     0.250000000000     0.082200000000     0          
C366     C      0.646400000000     0.250000000000     0.693700000000     0          
C367     C      0.691500000000     0.250000000000     0.629200000000     0          
C368     C      0.752200000000     0.250000000000     0.650900000000     0          
H369     H      0.763400000000     0.250000000000     0.703900000000     0          
C370     C      0.793500000000     0.250000000000     0.592900000000     0          
H371     H      0.833200000000     0.250000000000     0.607900000000     0          
C372     C      0.675900000000     0.250000000000     0.547600000000     0          
H373     H      0.636100000000     0.250000000000     0.533200000000     0          
C374     C      0.719300000000     0.250000000000     0.489200000000     0          
C375     C      0.643300000000     0.250000000000     0.058100000000     0          
C376     C      0.693100000000     0.250000000000     0.121700000000     0          


