data_OQIKOQ

_audit_creation_method RASPA-1.0
_audit_creation_date 2020-11-2
_audit_author_name 'Rocio Bueno-Perez'

_cell_length_a    20.096
_cell_length_b    20.096
_cell_length_c    16.372
_cell_angle_alpha 90
_cell_angle_beta  90
_cell_angle_gamma 120
_cell_volume      5726

_symmetry_cell_setting          triclinic
_symmetry_space_group_name_Hall 'P 1'
_symmetry_space_group_name_H-M  'P 1'
_symmetry_Int_Tables_number     1

_symmetry_equiv_pos_as_xyz 'x,y,z'

loop_
_atom_site_label
_atom_site_type_symbol
_atom_site_fract_x
_atom_site_fract_y
_atom_site_fract_z
_atom_site_charge
O1       O      0.222100000000     0.078300000000     0.059700000000     0          
C2       C      0.069300000000     0.839100000000     0.301000000000     0          
C3       C      0.078100000000     0.804300000000     0.370300000000     0          
C4       C      0.017900000000     0.768100000000     0.425700000000     0          
C5       C      0.948900000000     0.766500000000     0.412100000000     0          
C6       C      0.939700000000     0.801200000000     0.342900000000     0          
H7       H      0.110300000000     0.863200000000     0.262000000000     0          
H8       H      0.125300000000     0.804400000000     0.379400000000     0          
H9       H      0.907900000000     0.742400000000     0.451200000000     0          
O10      O      0.921700000000     0.143800000000     0.059700000000     0          
C11      C      0.767700000000     0.150100000000     0.947700000000     0          
C12      C      0.727600000000     0.189700000000     0.948200000000     0          
H13      H      0.752900000000     0.108000000000     0.910700000000     0          
H14      H      0.685300000000     0.175000000000     0.911300000000     0          
O15      O      0.856200000000     0.777900000000     0.059700000000     0          
C16      C      0.849900000000     0.617600000000     0.947700000000     0          
C17      C      0.810300000000     0.537900000000     0.948200000000     0          
H18      H      0.892000000000     0.644900000000     0.910700000000     0          
H19      H      0.825000000000     0.510300000000     0.911300000000     0          
O20      O      0.777900000000     0.921700000000     0.059700000000     0          
C21      C      0.617600000000     0.767700000000     0.947700000000     0          
C22      C      0.537900000000     0.727600000000     0.948200000000     0          
H23      H      0.644900000000     0.752900000000     0.910700000000     0          
H24      H      0.510300000000     0.685300000000     0.911300000000     0          
O25      O      0.078300000000     0.856200000000     0.059700000000     0          
O26      O      0.143800000000     0.222100000000     0.059700000000     0          
O27      O      0.078300000000     0.222100000000     0.940300000000     0          
C28      C      0.839100000000     0.069300000000     0.699000000000     0          
C29      C      0.804300000000     0.078100000000     0.629700000000     0          
C30      C      0.768100000000     0.017900000000     0.574300000000     0          
C31      C      0.766500000000     0.948900000000     0.587900000000     0          
C32      C      0.801200000000     0.939700000000     0.657100000000     0          
H33      H      0.863200000000     0.110300000000     0.738000000000     0          
H34      H      0.804400000000     0.125300000000     0.620600000000     0          
H35      H      0.742400000000     0.907900000000     0.548800000000     0          
O36      O      0.143800000000     0.921700000000     0.940300000000     0          
O37      O      0.777900000000     0.856200000000     0.940300000000     0          
C38      C      0.617600000000     0.849900000000     0.052300000000     0          
C39      C      0.537900000000     0.810300000000     0.051800000000     0          
C40      C      0.930700000000     0.769800000000     0.699000000000     0          
C41      C      0.921900000000     0.726200000000     0.629700000000     0          
C42      C      0.982100000000     0.750200000000     0.574300000000     0          
C43      C      0.051100000000     0.817600000000     0.587900000000     0          
C44      C      0.060300000000     0.861500000000     0.657100000000     0          
H45      H      0.644900000000     0.892000000000     0.089300000000     0          
H46      H      0.510300000000     0.825000000000     0.088700000000     0          
H47      H      0.889700000000     0.752900000000     0.738000000000     0          
H48      H      0.874700000000     0.679100000000     0.620600000000     0          
H49      H      0.092100000000     0.834500000000     0.548800000000     0          
H50      H      0.107600000000     0.908700000000     0.666100000000     0          
O51      O      0.921700000000     0.777900000000     0.940300000000     0          
C52      C      0.767700000000     0.617600000000     0.052300000000     0          
C53      C      0.727600000000     0.537900000000     0.051800000000     0          
C54      C      0.160900000000     0.930700000000     0.699000000000     0          
C55      C      0.195700000000     0.921900000000     0.629700000000     0          
C56      C      0.231900000000     0.982100000000     0.574300000000     0          
C57      C      0.233500000000     0.051100000000     0.587900000000     0          
C58      C      0.198800000000     0.060300000000     0.657100000000     0          
H59      H      0.752900000000     0.644900000000     0.089300000000     0          
H60      H      0.685300000000     0.510300000000     0.088700000000     0          
H61      H      0.136800000000     0.889700000000     0.738000000000     0          
H62      H      0.195600000000     0.874700000000     0.620600000000     0          
H63      H      0.257600000000     0.092100000000     0.548800000000     0          
O64      O      0.856200000000     0.078300000000     0.940300000000     0          
C65      C      0.849900000000     0.232300000000     0.052300000000     0          
C66      C      0.810300000000     0.272400000000     0.051800000000     0          
C67      C      0.769800000000     0.839100000000     0.699000000000     0          
C68      C      0.726200000000     0.804300000000     0.629700000000     0          
C69      C      0.750200000000     0.768100000000     0.574300000000     0          
C70      C      0.817600000000     0.766500000000     0.587900000000     0          
C71      C      0.861500000000     0.801200000000     0.657100000000     0          
H72      H      0.892000000000     0.247100000000     0.089300000000     0          
H73      H      0.825000000000     0.314700000000     0.088700000000     0          
H74      H      0.752900000000     0.863200000000     0.738000000000     0          
H75      H      0.679100000000     0.804400000000     0.620600000000     0          
H76      H      0.834500000000     0.742400000000     0.548800000000     0          
H77      H      0.908700000000     0.801100000000     0.666100000000     0          
O78      O      0.222100000000     0.143800000000     0.940300000000     0          
C79      C      0.069300000000     0.230200000000     0.699000000000     0          
C80      C      0.078100000000     0.273800000000     0.629700000000     0          
C81      C      0.017900000000     0.249800000000     0.574300000000     0          
C82      C      0.948900000000     0.182400000000     0.587900000000     0          
C83      C      0.939700000000     0.138500000000     0.657100000000     0          
H84      H      0.110300000000     0.247100000000     0.738000000000     0          
H85      H      0.125300000000     0.320900000000     0.620600000000     0          
H86      H      0.907900000000     0.165500000000     0.548800000000     0          
H87      H      0.892400000000     0.091300000000     0.666100000000     0          
O88      O      0.777900000000     0.921700000000     0.940300000000     0          
O89      O      0.078300000000     0.856200000000     0.940300000000     0          
C90      C      0.232300000000     0.849900000000     0.052300000000     0          
C91      C      0.272400000000     0.810300000000     0.051800000000     0          
H92      H      0.247100000000     0.892000000000     0.089300000000     0          
H93      H      0.314700000000     0.825000000000     0.088700000000     0          
O94      O      0.143800000000     0.222100000000     0.940300000000     0          
C95      C      0.150100000000     0.382400000000     0.052300000000     0          
C96      C      0.189700000000     0.462100000000     0.051800000000     0          
H97      H      0.108000000000     0.355100000000     0.089300000000     0          
H98      H      0.175000000000     0.489700000000     0.088700000000     0          
O99      O      0.222100000000     0.078300000000     0.940300000000     0          
C100     C      0.382400000000     0.232300000000     0.052300000000     0          
C101     C      0.462100000000     0.272400000000     0.051800000000     0          
H102     H      0.355100000000     0.247100000000     0.089300000000     0          
H103     H      0.489700000000     0.314700000000     0.088700000000     0          
O104     O      0.921700000000     0.143800000000     0.940300000000     0          
C105     C      0.160900000000     0.230200000000     0.699000000000     0          
C106     C      0.195700000000     0.273800000000     0.629700000000     0          
C107     C      0.231900000000     0.249800000000     0.574300000000     0          
C108     C      0.233500000000     0.182400000000     0.587900000000     0          
C109     C      0.198800000000     0.138500000000     0.657100000000     0          
H110     H      0.136800000000     0.247100000000     0.738000000000     0          
H111     H      0.195600000000     0.320900000000     0.620600000000     0          
H112     H      0.257600000000     0.165500000000     0.548800000000     0          
H113     H      0.198900000000     0.091300000000     0.666100000000     0          
O114     O      0.856200000000     0.777900000000     0.940300000000     0          
O115     O      0.921700000000     0.777900000000     0.059700000000     0          
C116     C      0.160900000000     0.930700000000     0.301000000000     0          
C117     C      0.195700000000     0.921900000000     0.370300000000     0          
C118     C      0.231900000000     0.982100000000     0.425700000000     0          
C119     C      0.233500000000     0.051100000000     0.412100000000     0          
C120     C      0.198800000000     0.060300000000     0.342900000000     0          
H121     H      0.136800000000     0.889700000000     0.262000000000     0          
H122     H      0.195600000000     0.874700000000     0.379400000000     0          
H123     H      0.257600000000     0.092100000000     0.451200000000     0          
H124     H      0.198900000000     0.107600000000     0.333900000000     0          
O125     O      0.856200000000     0.078300000000     0.059700000000     0          
C126     C      0.769800000000     0.839100000000     0.301000000000     0          
C127     C      0.726200000000     0.804300000000     0.370300000000     0          
C128     C      0.750200000000     0.768100000000     0.425700000000     0          
C129     C      0.817600000000     0.766500000000     0.412100000000     0          
C130     C      0.861500000000     0.801200000000     0.342900000000     0          
H131     H      0.752900000000     0.863200000000     0.262000000000     0          
H132     H      0.679100000000     0.804400000000     0.379400000000     0          
H133     H      0.834500000000     0.742400000000     0.451200000000     0          
H134     H      0.908700000000     0.801100000000     0.333900000000     0          
O135     O      0.222100000000     0.143800000000     0.059700000000     0          
C136     C      0.382400000000     0.150100000000     0.947700000000     0          
C137     C      0.462100000000     0.189700000000     0.948200000000     0          
C138     C      0.069300000000     0.230200000000     0.301000000000     0          
C139     C      0.078100000000     0.273800000000     0.370300000000     0          
C140     C      0.017900000000     0.249800000000     0.425700000000     0          
C141     C      0.948900000000     0.182400000000     0.412100000000     0          
C142     C      0.939700000000     0.138500000000     0.342900000000     0          
H143     H      0.355100000000     0.108000000000     0.910700000000     0          
H144     H      0.489700000000     0.175000000000     0.911300000000     0          
H145     H      0.110300000000     0.247100000000     0.262000000000     0          
H146     H      0.125300000000     0.320900000000     0.379400000000     0          
H147     H      0.907900000000     0.165500000000     0.451200000000     0          
H148     H      0.892400000000     0.091300000000     0.333900000000     0          
O149     O      0.078300000000     0.222100000000     0.059700000000     0          
C150     C      0.232300000000     0.382400000000     0.947700000000     0          
C151     C      0.272400000000     0.462100000000     0.948200000000     0          
C152     C      0.839100000000     0.069300000000     0.301000000000     0          
C153     C      0.804300000000     0.078100000000     0.370300000000     0          
C154     C      0.768100000000     0.017900000000     0.425700000000     0          
C155     C      0.766500000000     0.948900000000     0.412100000000     0          
C156     C      0.801200000000     0.939700000000     0.342900000000     0          
H157     H      0.247100000000     0.355100000000     0.910700000000     0          
H158     H      0.314700000000     0.489700000000     0.911300000000     0          
H159     H      0.863200000000     0.110300000000     0.262000000000     0          
H160     H      0.804400000000     0.125300000000     0.379400000000     0          
H161     H      0.742400000000     0.907900000000     0.451200000000     0          
O162     O      0.143800000000     0.921700000000     0.059700000000     0          
C163     C      0.150100000000     0.767700000000     0.947700000000     0          
C164     C      0.189700000000     0.727600000000     0.948200000000     0          
C165     C      0.230200000000     0.160900000000     0.301000000000     0          
C166     C      0.273800000000     0.195700000000     0.370300000000     0          
C167     C      0.249800000000     0.231900000000     0.425700000000     0          
C168     C      0.182400000000     0.233500000000     0.412100000000     0          
C169     C      0.138500000000     0.198800000000     0.342900000000     0          
H170     H      0.108000000000     0.752900000000     0.910700000000     0          
H171     H      0.175000000000     0.685300000000     0.911300000000     0          
H172     H      0.247100000000     0.136800000000     0.262000000000     0          
H173     H      0.320900000000     0.195600000000     0.379400000000     0          
H174     H      0.165500000000     0.257600000000     0.451200000000     0          
O175     O      0.777900000000     0.856200000000     0.059700000000     0          
Zr176    Zr     0.102600000000     0.000000000000     0.085300000000     0          
O177     O      0.093200000000     0.000000000000     0.044300000000     0          
Zr178    Zr     0.000000000000     0.102600000000     0.085300000000     0          
O179     O      0.000000000000     0.093200000000     0.044300000000     0          
Zr180    Zr     0.897400000000     0.897400000000     0.085300000000     0          
O181     O      0.906800000000     0.906800000000     0.044300000000     0          
Zr182    Zr     0.897400000000     0.000000000000     0.085300000000     0          
O183     O      0.906800000000     0.000000000000     0.044300000000     0          
Zr184    Zr     0.000000000000     0.897400000000     0.085300000000     0          
O185     O      0.000000000000     0.906800000000     0.044300000000     0          
Zr186    Zr     0.102600000000     0.102600000000     0.085300000000     0          
O187     O      0.093200000000     0.093200000000     0.044300000000     0          
Zr188    Zr     0.000000000000     0.102600000000     0.914700000000     0          
O189     O      0.000000000000     0.093200000000     0.955700000000     0          
Zr190    Zr     0.102600000000     0.000000000000     0.914700000000     0          
O191     O      0.093200000000     0.000000000000     0.955700000000     0          
Zr192    Zr     0.897400000000     0.897400000000     0.914700000000     0          
O193     O      0.906800000000     0.906800000000     0.955700000000     0          
Zr194    Zr     0.000000000000     0.897400000000     0.914700000000     0          
O195     O      0.000000000000     0.906800000000     0.955700000000     0          
Zr196    Zr     0.897400000000     0.000000000000     0.914700000000     0          
O197     O      0.906800000000     0.000000000000     0.955700000000     0          
Zr198    Zr     0.102600000000     0.102600000000     0.914700000000     0          
O199     O      0.093200000000     0.093200000000     0.955700000000     0          
O200     O      0.000000000000     0.000000000000     0.125000000000     0          
O201     O      0.000000000000     0.000000000000     0.875000000000     0          
C202     C      0.253300000000     0.126650000000     0.000000000000     0          
C203     C      0.341700000000     0.170850000000     0.000000000000     0          
C204     C      0.502800000000     0.251400000000     0.000000000000     0          
C205     C      0.586400000000     0.293200000000     0.000000000000     0          
C206     C      0.873350000000     0.126650000000     0.000000000000     0          
C207     C      0.829150000000     0.170850000000     0.000000000000     0          
C208     C      0.748600000000     0.251400000000     0.000000000000     0          
C209     C      0.706800000000     0.293200000000     0.000000000000     0          
C210     C      0.873350000000     0.746700000000     0.000000000000     0          
C211     C      0.829150000000     0.658300000000     0.000000000000     0          
C212     C      0.748600000000     0.497200000000     0.000000000000     0          
C213     C      0.706800000000     0.413600000000     0.000000000000     0          
C214     C      0.746700000000     0.873350000000     0.000000000000     0          
C215     C      0.658300000000     0.829150000000     0.000000000000     0          
C216     C      0.497200000000     0.748600000000     0.000000000000     0          
C217     C      0.413600000000     0.706800000000     0.000000000000     0          
C218     C      0.126650000000     0.873350000000     0.000000000000     0          
C219     C      0.170850000000     0.829150000000     0.000000000000     0          
C220     C      0.251400000000     0.748600000000     0.000000000000     0          
C221     C      0.293200000000     0.706800000000     0.000000000000     0          
C222     C      0.126650000000     0.253300000000     0.000000000000     0          
C223     C      0.170850000000     0.341700000000     0.000000000000     0          
C224     C      0.251400000000     0.502800000000     0.000000000000     0          
C225     C      0.293200000000     0.586400000000     0.000000000000     0          
C226     C      0.626750000000     0.253500000000     0.000000000000     0          
H227     H      0.599150000000     0.198300000000     0.000000000000     0          
C228     C      0.746500000000     0.373250000000     0.000000000000     0          
H229     H      0.801700000000     0.400850000000     0.000000000000     0          
C230     C      0.626750000000     0.373250000000     0.000000000000     0          
H231     H      0.599150000000     0.400850000000     0.000000000000     0          
C232     C      0.373250000000     0.746500000000     0.000000000000     0          
H233     H      0.400850000000     0.801700000000     0.000000000000     0          
C234     C      0.253500000000     0.626750000000     0.000000000000     0          
H235     H      0.198300000000     0.599150000000     0.000000000000     0          
C236     C      0.373250000000     0.626750000000     0.000000000000     0          
H237     H      0.400850000000     0.599150000000     0.000000000000     0          
O238     O      0.072600000000     0.927400000000     0.183500000000     0          
O239     O      0.072600000000     0.145200000000     0.183500000000     0          
O240     O      0.854800000000     0.927400000000     0.183500000000     0          
O241     O      0.927400000000     0.072600000000     0.183500000000     0          
O242     O      0.927400000000     0.854800000000     0.183500000000     0          
O243     O      0.145200000000     0.072600000000     0.183500000000     0          
O244     O      0.927400000000     0.072600000000     0.816500000000     0          
O245     O      0.145200000000     0.072600000000     0.816500000000     0          
O246     O      0.927400000000     0.854800000000     0.816500000000     0          
O247     O      0.072600000000     0.927400000000     0.816500000000     0          
O248     O      0.854800000000     0.927400000000     0.816500000000     0          
O249     O      0.072600000000     0.145200000000     0.816500000000     0          
C250     C      0.000000000000     0.881230000000     0.202900000000     0          
C251     C      0.000000000000     0.837430000000     0.287500000000     0          
C252     C      0.118770000000     0.118770000000     0.202900000000     0          
C253     C      0.162570000000     0.162570000000     0.287500000000     0          
C254     C      0.881230000000     0.000000000000     0.202900000000     0          
C255     C      0.837430000000     0.000000000000     0.287500000000     0          
C256     C      0.000000000000     0.118770000000     0.202900000000     0          
C257     C      0.000000000000     0.162570000000     0.287500000000     0          
C258     C      0.881230000000     0.881230000000     0.202900000000     0          
C259     C      0.837430000000     0.837430000000     0.287500000000     0          
C260     C      0.118770000000     0.000000000000     0.202900000000     0          
C261     C      0.162570000000     0.000000000000     0.287500000000     0          
C262     C      0.881230000000     0.000000000000     0.797100000000     0          
C263     C      0.837430000000     0.000000000000     0.712500000000     0          
C264     C      0.118770000000     0.118770000000     0.797100000000     0          
C265     C      0.162570000000     0.162570000000     0.712500000000     0          
C266     C      0.000000000000     0.881230000000     0.797100000000     0          
C267     C      0.000000000000     0.837430000000     0.712500000000     0          
C268     C      0.118770000000     0.000000000000     0.797100000000     0          
C269     C      0.162570000000     0.000000000000     0.712500000000     0          
C270     C      0.881230000000     0.881230000000     0.797100000000     0          
C271     C      0.837430000000     0.837430000000     0.712500000000     0          
C272     C      0.000000000000     0.118770000000     0.797100000000     0          
C273     C      0.000000000000     0.162570000000     0.712500000000     0          
O274     O      0.962000000000     0.629000000000     0.500000000000     0          
S275     S      0.284800000000     0.311200000000     0.500000000000     0          
O276     O      0.285000000000     0.389000000000     0.500000000000     0          
O277     O      0.667000000000     0.038000000000     0.500000000000     0          
O278     O      0.038000000000     0.371000000000     0.500000000000     0          
O279     O      0.629000000000     0.667000000000     0.500000000000     0          
S280     S      0.311200000000     0.026400000000     0.500000000000     0          
O281     O      0.389000000000     0.104000000000     0.500000000000     0          
S282     S      0.715200000000     0.026400000000     0.500000000000     0          
O283     O      0.715000000000     0.104000000000     0.500000000000     0          
O284     O      0.333000000000     0.371000000000     0.500000000000     0          
S285     S      0.973600000000     0.688800000000     0.500000000000     0          
O286     O      0.896000000000     0.611000000000     0.500000000000     0          
O287     O      0.371000000000     0.038000000000     0.500000000000     0          
S288     S      0.688800000000     0.715200000000     0.500000000000     0          
O289     O      0.667000000000     0.629000000000     0.500000000000     0          
S290     S      0.026400000000     0.311200000000     0.500000000000     0          
O291     O      0.104000000000     0.389000000000     0.500000000000     0          
H292     H      0.799880000000     0.883050000000     0.668210000000     0          
H293     H      0.799880000000     0.883050000000     0.331790000000     0          


