data_OQUFIR

_audit_creation_method RASPA-1.0
_audit_creation_date 2020-12-14
_audit_author_name 'Rocio Bueno-Perez'

_cell_length_a    24.42
_cell_length_b    24.42
_cell_length_c    14.7231
_cell_angle_alpha 90
_cell_angle_beta  90
_cell_angle_gamma 90
_cell_volume      8779.92

_symmetry_cell_setting          triclinic
_symmetry_space_group_name_Hall 'P 1'
_symmetry_space_group_name_H-M  'P 1'
_symmetry_Int_Tables_number     1

_symmetry_equiv_pos_as_xyz 'x,y,z'

loop_
_atom_site_label
_atom_site_type_symbol
_atom_site_fract_x
_atom_site_fract_y
_atom_site_fract_z
_atom_site_charge
O1       O      0.445460000000     0.147450000000     0.090600000000     0          
O2       O      0.397600000000     0.083400000000     0.166000000000     0          
C3       C      0.407800000000     0.131600000000     0.140800000000     0          
C4       C      0.369700000000     0.175000000000     0.176800000000     0          
C5       C      0.371500000000     0.226300000000     0.141200000000     0          
H6       H      0.399000000000     0.235600000000     0.098300000000     0          
C7       C      0.332600000000     0.265400000000     0.168100000000     0          
C8       C      0.295400000000     0.253500000000     0.234800000000     0          
C9       C      0.296900000000     0.201600000000     0.275600000000     0          
C10      C      0.333700000000     0.161900000000     0.244300000000     0          
H11      H      0.333600000000     0.126100000000     0.269700000000     0          
F12      F      0.269900000000     0.224400000000     0.434700000000     0          
F13      F      0.282400000000     0.140900000000     0.408600000000     0          
C14      C      0.267400000000     0.189100000000     0.363000000000     0          
F15      F      0.212100000000     0.179500000000     0.358600000000     0          
F16      F      0.624000000000     0.674200000000     0.054200000000     0          
F17      F      0.653400000000     0.634900000000     0.173100000000     0          
F18      F      0.708800000000     0.662100000000     0.071700000000     0          
O19      O      0.554540000000     0.852550000000     0.090600000000     0          
O20      O      0.602400000000     0.916600000000     0.166000000000     0          
C21      C      0.592200000000     0.868400000000     0.140800000000     0          
C22      C      0.630300000000     0.825000000000     0.176800000000     0          
C23      C      0.628500000000     0.773700000000     0.141200000000     0          
H24      H      0.601000000000     0.764400000000     0.098300000000     0          
C25      C      0.667400000000     0.734600000000     0.168100000000     0          
C26      C      0.704600000000     0.746500000000     0.234800000000     0          
C27      C      0.703100000000     0.798400000000     0.275600000000     0          
C28      C      0.666300000000     0.838100000000     0.244300000000     0          
H29      H      0.666400000000     0.873900000000     0.269700000000     0          
C30      C      0.664500000000     0.680200000000     0.120200000000     0          
O31      O      0.852550000000     0.445460000000     0.590600000000     0          
O32      O      0.916600000000     0.397600000000     0.666000000000     0          
C33      C      0.868400000000     0.407800000000     0.640800000000     0          
C34      C      0.825000000000     0.369700000000     0.676800000000     0          
C35      C      0.773700000000     0.371500000000     0.641200000000     0          
H36      H      0.764400000000     0.399000000000     0.598300000000     0          
C37      C      0.734600000000     0.332600000000     0.668100000000     0          
C38      C      0.746500000000     0.295400000000     0.734800000000     0          
C39      C      0.798400000000     0.296900000000     0.775600000000     0          
C40      C      0.838100000000     0.333700000000     0.744300000000     0          
H41      H      0.873900000000     0.333600000000     0.769700000000     0          
O42      O      0.092700000000     0.474000000000     0.804100000000     0          
C43      C      0.044500000000     0.448600000000     0.915600000000     0          
C44      C      0.046500000000     0.450300000000     0.813000000000     0          
H45      H      0.970500000000     0.410300000000     0.917900000000     0          
F46      F      0.775600000000     0.269900000000     0.934700000000     0          
F47      F      0.859100000000     0.282400000000     0.908600000000     0          
C48      C      0.810900000000     0.267400000000     0.863000000000     0          
F49      F      0.820500000000     0.212100000000     0.858600000000     0          
O50      O      0.147450000000     0.554540000000     0.590600000000     0          
O51      O      0.083400000000     0.602400000000     0.666000000000     0          
C52      C      0.131600000000     0.592200000000     0.640800000000     0          
C53      C      0.175000000000     0.630300000000     0.676800000000     0          
C54      C      0.226300000000     0.628500000000     0.641200000000     0          
H55      H      0.235600000000     0.601000000000     0.598300000000     0          
C56      C      0.265400000000     0.667400000000     0.668100000000     0          
C57      C      0.253500000000     0.704600000000     0.734800000000     0          
C58      C      0.201600000000     0.703100000000     0.775600000000     0          
C59      C      0.161900000000     0.666300000000     0.744300000000     0          
H60      H      0.126100000000     0.666400000000     0.769700000000     0          
O61      O      0.907300000000     0.526000000000     0.804100000000     0          
C62      C      0.955500000000     0.551400000000     0.915600000000     0          
C63      C      0.953500000000     0.549700000000     0.813000000000     0          
H64      H      0.029500000000     0.589700000000     0.917900000000     0          
F65      F      0.224400000000     0.730100000000     0.934700000000     0          
F66      F      0.140900000000     0.717600000000     0.908600000000     0          
C67      C      0.189100000000     0.732600000000     0.863000000000     0          
F68      F      0.179500000000     0.787900000000     0.858600000000     0          
F69      F      0.624000000000     0.325800000000     0.945800000000     0          
F70      F      0.653400000000     0.365100000000     0.826900000000     0          
F71      F      0.708800000000     0.337900000000     0.928300000000     0          
O72      O      0.554540000000     0.147450000000     0.909400000000     0          
O73      O      0.602400000000     0.083400000000     0.834000000000     0          
C74      C      0.592200000000     0.131600000000     0.859200000000     0          
C75      C      0.630300000000     0.175000000000     0.823200000000     0          
C76      C      0.628500000000     0.226300000000     0.858800000000     0          
H77      H      0.601000000000     0.235600000000     0.901700000000     0          
C78      C      0.667400000000     0.265400000000     0.831900000000     0          
C79      C      0.704600000000     0.253500000000     0.765200000000     0          
C80      C      0.703100000000     0.201600000000     0.724400000000     0          
C81      C      0.666300000000     0.161900000000     0.755700000000     0          
H82      H      0.666400000000     0.126100000000     0.730300000000     0          
C83      C      0.664500000000     0.319800000000     0.879800000000     0          
O84      O      0.526000000000     0.907300000000     0.695900000000     0          
C85      C      0.551400000000     0.955500000000     0.584400000000     0          
C86      C      0.549700000000     0.953500000000     0.687000000000     0          
H87      H      0.589700000000     0.029500000000     0.582100000000     0          
F88      F      0.376000000000     0.674200000000     0.945800000000     0          
F89      F      0.346600000000     0.634900000000     0.826900000000     0          
F90      F      0.291200000000     0.662100000000     0.928300000000     0          
O91      O      0.445460000000     0.852550000000     0.909400000000     0          
O92      O      0.397600000000     0.916600000000     0.834000000000     0          
C93      C      0.407800000000     0.868400000000     0.859200000000     0          
C94      C      0.369700000000     0.825000000000     0.823200000000     0          
C95      C      0.371500000000     0.773700000000     0.858800000000     0          
H96      H      0.399000000000     0.764400000000     0.901700000000     0          
C97      C      0.332600000000     0.734600000000     0.831900000000     0          
C98      C      0.295400000000     0.746500000000     0.765200000000     0          
C99      C      0.296900000000     0.798400000000     0.724400000000     0          
C100     C      0.333700000000     0.838100000000     0.755700000000     0          
H101     H      0.333600000000     0.873900000000     0.730300000000     0          
C102     C      0.335500000000     0.680200000000     0.879800000000     0          
O103     O      0.474000000000     0.092700000000     0.695900000000     0          
C104     C      0.448600000000     0.044500000000     0.584400000000     0          
C105     C      0.450300000000     0.046500000000     0.687000000000     0          
H106     H      0.410300000000     0.970500000000     0.582100000000     0          
F107     F      0.325800000000     0.376000000000     0.445800000000     0          
F108     F      0.365100000000     0.346600000000     0.326900000000     0          
F109     F      0.337900000000     0.291200000000     0.428300000000     0          
O110     O      0.147450000000     0.445460000000     0.409400000000     0          
O111     O      0.083400000000     0.397600000000     0.334000000000     0          
C112     C      0.131600000000     0.407800000000     0.359200000000     0          
C113     C      0.175000000000     0.369700000000     0.323200000000     0          
C114     C      0.226300000000     0.371500000000     0.358800000000     0          
H115     H      0.235600000000     0.399000000000     0.401700000000     0          
C116     C      0.265400000000     0.332600000000     0.331900000000     0          
C117     C      0.253500000000     0.295400000000     0.265200000000     0          
C118     C      0.201600000000     0.296900000000     0.224400000000     0          
C119     C      0.161900000000     0.333700000000     0.255700000000     0          
H120     H      0.126100000000     0.333600000000     0.230300000000     0          
C121     C      0.319800000000     0.335500000000     0.379800000000     0          
O122     O      0.852550000000     0.554540000000     0.409400000000     0          
O123     O      0.916600000000     0.602400000000     0.334000000000     0          
C124     C      0.868400000000     0.592200000000     0.359200000000     0          
C125     C      0.825000000000     0.630300000000     0.323200000000     0          
C126     C      0.773700000000     0.628500000000     0.358800000000     0          
H127     H      0.764400000000     0.601000000000     0.401700000000     0          
C128     C      0.734600000000     0.667400000000     0.331900000000     0          
C129     C      0.746500000000     0.704600000000     0.265200000000     0          
C130     C      0.798400000000     0.703100000000     0.224400000000     0          
C131     C      0.838100000000     0.666300000000     0.255700000000     0          
H132     H      0.873900000000     0.666400000000     0.230300000000     0          
F133     F      0.775600000000     0.730100000000     0.065300000000     0          
F134     F      0.859100000000     0.717600000000     0.091400000000     0          
C135     C      0.810900000000     0.732600000000     0.137000000000     0          
F136     F      0.820500000000     0.787900000000     0.141400000000     0          
O137     O      0.554540000000     0.852550000000     0.909400000000     0          
O138     O      0.602400000000     0.916600000000     0.834000000000     0          
C139     C      0.592200000000     0.868400000000     0.859200000000     0          
C140     C      0.630300000000     0.825000000000     0.823200000000     0          
C141     C      0.628500000000     0.773700000000     0.858800000000     0          
H142     H      0.601000000000     0.764400000000     0.901700000000     0          
C143     C      0.667400000000     0.734600000000     0.831900000000     0          
C144     C      0.704600000000     0.746500000000     0.765200000000     0          
C145     C      0.703100000000     0.798400000000     0.724400000000     0          
C146     C      0.666300000000     0.838100000000     0.755700000000     0          
H147     H      0.666400000000     0.873900000000     0.730300000000     0          
F148     F      0.730100000000     0.775600000000     0.565300000000     0          
F149     F      0.717600000000     0.859100000000     0.591400000000     0          
C150     C      0.732600000000     0.810900000000     0.637000000000     0          
F151     F      0.787900000000     0.820500000000     0.641400000000     0          
F152     F      0.376000000000     0.325800000000     0.945800000000     0          
F153     F      0.346600000000     0.365100000000     0.826900000000     0          
F154     F      0.291200000000     0.337900000000     0.928300000000     0          
O155     O      0.445460000000     0.147450000000     0.909400000000     0          
O156     O      0.397600000000     0.083400000000     0.834000000000     0          
C157     C      0.407800000000     0.131600000000     0.859200000000     0          
C158     C      0.369700000000     0.175000000000     0.823200000000     0          
C159     C      0.371500000000     0.226300000000     0.858800000000     0          
H160     H      0.399000000000     0.235600000000     0.901700000000     0          
C161     C      0.332600000000     0.265400000000     0.831900000000     0          
C162     C      0.295400000000     0.253500000000     0.765200000000     0          
C163     C      0.296900000000     0.201600000000     0.724400000000     0          
C164     C      0.333700000000     0.161900000000     0.755700000000     0          
H165     H      0.333600000000     0.126100000000     0.730300000000     0          
C166     C      0.335500000000     0.319800000000     0.879800000000     0          
F167     F      0.325800000000     0.624000000000     0.445800000000     0          
F168     F      0.365100000000     0.653400000000     0.326900000000     0          
F169     F      0.337900000000     0.708800000000     0.428300000000     0          
O170     O      0.147450000000     0.554540000000     0.409400000000     0          
O171     O      0.083400000000     0.602400000000     0.334000000000     0          
C172     C      0.131600000000     0.592200000000     0.359200000000     0          
C173     C      0.175000000000     0.630300000000     0.323200000000     0          
C174     C      0.226300000000     0.628500000000     0.358800000000     0          
H175     H      0.235600000000     0.601000000000     0.401700000000     0          
C176     C      0.265400000000     0.667400000000     0.331900000000     0          
C177     C      0.253500000000     0.704600000000     0.265200000000     0          
C178     C      0.201600000000     0.703100000000     0.224400000000     0          
C179     C      0.161900000000     0.666300000000     0.255700000000     0          
H180     H      0.126100000000     0.666400000000     0.230300000000     0          
C181     C      0.319800000000     0.664500000000     0.379800000000     0          
O182     O      0.907300000000     0.526000000000     0.195900000000     0          
C183     C      0.955500000000     0.551400000000     0.084400000000     0          
C184     C      0.953500000000     0.549700000000     0.187000000000     0          
H185     H      0.029500000000     0.589700000000     0.082100000000     0          
F186     F      0.674200000000     0.376000000000     0.445800000000     0          
F187     F      0.634900000000     0.346600000000     0.326900000000     0          
F188     F      0.662100000000     0.291200000000     0.428300000000     0          
O189     O      0.852550000000     0.445460000000     0.409400000000     0          
O190     O      0.916600000000     0.397600000000     0.334000000000     0          
C191     C      0.868400000000     0.407800000000     0.359200000000     0          
C192     C      0.825000000000     0.369700000000     0.323200000000     0          
C193     C      0.773700000000     0.371500000000     0.358800000000     0          
H194     H      0.764400000000     0.399000000000     0.401700000000     0          
C195     C      0.734600000000     0.332600000000     0.331900000000     0          
C196     C      0.746500000000     0.295400000000     0.265200000000     0          
C197     C      0.798400000000     0.296900000000     0.224400000000     0          
C198     C      0.838100000000     0.333700000000     0.255700000000     0          
H199     H      0.873900000000     0.333600000000     0.230300000000     0          
C200     C      0.680200000000     0.335500000000     0.379800000000     0          
O201     O      0.092700000000     0.474000000000     0.195900000000     0          
C202     C      0.044500000000     0.448600000000     0.084400000000     0          
C203     C      0.046500000000     0.450300000000     0.187000000000     0          
H204     H      0.970500000000     0.410300000000     0.082100000000     0          
F205     F      0.376000000000     0.674200000000     0.054200000000     0          
F206     F      0.346600000000     0.634900000000     0.173100000000     0          
F207     F      0.291200000000     0.662100000000     0.071700000000     0          
O208     O      0.445460000000     0.852550000000     0.090600000000     0          
O209     O      0.397600000000     0.916600000000     0.166000000000     0          
C210     C      0.407800000000     0.868400000000     0.140800000000     0          
C211     C      0.369700000000     0.825000000000     0.176800000000     0          
C212     C      0.371500000000     0.773700000000     0.141200000000     0          
H213     H      0.399000000000     0.764400000000     0.098300000000     0          
C214     C      0.332600000000     0.734600000000     0.168100000000     0          
C215     C      0.295400000000     0.746500000000     0.234800000000     0          
C216     C      0.296900000000     0.798400000000     0.275600000000     0          
C217     C      0.333700000000     0.838100000000     0.244300000000     0          
H218     H      0.333600000000     0.873900000000     0.269700000000     0          
C219     C      0.335500000000     0.680200000000     0.120200000000     0          
O220     O      0.474000000000     0.092700000000     0.304100000000     0          
C221     C      0.448600000000     0.044500000000     0.415600000000     0          
C222     C      0.450300000000     0.046500000000     0.313000000000     0          
H223     H      0.410300000000     0.970500000000     0.417900000000     0          
F224     F      0.624000000000     0.325800000000     0.054200000000     0          
F225     F      0.653400000000     0.365100000000     0.173100000000     0          
F226     F      0.708800000000     0.337900000000     0.071700000000     0          
O227     O      0.554540000000     0.147450000000     0.090600000000     0          
O228     O      0.602400000000     0.083400000000     0.166000000000     0          
C229     C      0.592200000000     0.131600000000     0.140800000000     0          
C230     C      0.630300000000     0.175000000000     0.176800000000     0          
C231     C      0.628500000000     0.226300000000     0.141200000000     0          
H232     H      0.601000000000     0.235600000000     0.098300000000     0          
C233     C      0.667400000000     0.265400000000     0.168100000000     0          
C234     C      0.704600000000     0.253500000000     0.234800000000     0          
C235     C      0.703100000000     0.201600000000     0.275600000000     0          
C236     C      0.666300000000     0.161900000000     0.244300000000     0          
H237     H      0.666400000000     0.126100000000     0.269700000000     0          
C238     C      0.664500000000     0.319800000000     0.120200000000     0          
O239     O      0.526000000000     0.907300000000     0.304100000000     0          
C240     C      0.551400000000     0.955500000000     0.415600000000     0          
C241     C      0.549700000000     0.953500000000     0.313000000000     0          
H242     H      0.589700000000     0.029500000000     0.417900000000     0          
O243     O      0.852550000000     0.554540000000     0.590600000000     0          
O244     O      0.916600000000     0.602400000000     0.666000000000     0          
C245     C      0.868400000000     0.592200000000     0.640800000000     0          
C246     C      0.825000000000     0.630300000000     0.676800000000     0          
C247     C      0.773700000000     0.628500000000     0.641200000000     0          
H248     H      0.764400000000     0.601000000000     0.598300000000     0          
C249     C      0.734600000000     0.667400000000     0.668100000000     0          
C250     C      0.746500000000     0.704600000000     0.734800000000     0          
C251     C      0.798400000000     0.703100000000     0.775600000000     0          
C252     C      0.838100000000     0.666300000000     0.744300000000     0          
H253     H      0.873900000000     0.666400000000     0.769700000000     0          
F254     F      0.775600000000     0.730100000000     0.934700000000     0          
F255     F      0.859100000000     0.717600000000     0.908600000000     0          
C256     C      0.810900000000     0.732600000000     0.863000000000     0          
F257     F      0.820500000000     0.787900000000     0.858600000000     0          
F258     F      0.325800000000     0.376000000000     0.554200000000     0          
F259     F      0.365100000000     0.346600000000     0.673100000000     0          
F260     F      0.337900000000     0.291200000000     0.571700000000     0          
O261     O      0.147450000000     0.445460000000     0.590600000000     0          
O262     O      0.083400000000     0.397600000000     0.666000000000     0          
C263     C      0.131600000000     0.407800000000     0.640800000000     0          
C264     C      0.175000000000     0.369700000000     0.676800000000     0          
C265     C      0.226300000000     0.371500000000     0.641200000000     0          
H266     H      0.235600000000     0.399000000000     0.598300000000     0          
C267     C      0.265400000000     0.332600000000     0.668100000000     0          
C268     C      0.253500000000     0.295400000000     0.734800000000     0          
C269     C      0.201600000000     0.296900000000     0.775600000000     0          
C270     C      0.161900000000     0.333700000000     0.744300000000     0          
H271     H      0.126100000000     0.333600000000     0.769700000000     0          
C272     C      0.319800000000     0.335500000000     0.620200000000     0          
Zr273    Zr     0.500000000000     0.100360000000     0.000000000000     0          
Zr274    Zr     0.500000000000     0.899640000000     0.000000000000     0          
Zr275    Zr     0.899640000000     0.500000000000     0.500000000000     0          
Zr276    Zr     0.100360000000     0.500000000000     0.500000000000     0          
Zr277    Zr     0.427790000000     0.000000000000     0.120030000000     0          
C278     C      0.425400000000     0.000000000000     0.451800000000     0          
O279     O      0.427700000000     0.000000000000     0.269600000000     0          
Zr280    Zr     0.572210000000     0.000000000000     0.120030000000     0          
C281     C      0.574600000000     0.000000000000     0.451800000000     0          
O282     O      0.572300000000     0.000000000000     0.269600000000     0          
Zr283    Zr     0.000000000000     0.427790000000     0.620030000000     0          
C284     C      0.000000000000     0.425400000000     0.951800000000     0          
O285     O      0.000000000000     0.427700000000     0.769600000000     0          
Zr286    Zr     0.000000000000     0.572210000000     0.620030000000     0          
C287     C      0.000000000000     0.574600000000     0.951800000000     0          
O288     O      0.000000000000     0.572300000000     0.769600000000     0          
Zr289    Zr     0.572210000000     0.000000000000     0.879970000000     0          
C290     C      0.574600000000     0.000000000000     0.548200000000     0          
O291     O      0.572300000000     0.000000000000     0.730400000000     0          
Zr292    Zr     0.427790000000     0.000000000000     0.879970000000     0          
C293     C      0.425400000000     0.000000000000     0.548200000000     0          
O294     O      0.427700000000     0.000000000000     0.730400000000     0          
Zr295    Zr     0.000000000000     0.427790000000     0.379970000000     0          
C296     C      0.000000000000     0.425400000000     0.048200000000     0          
O297     O      0.000000000000     0.427700000000     0.230400000000     0          
Zr298    Zr     0.000000000000     0.572210000000     0.379970000000     0          
C299     C      0.000000000000     0.574600000000     0.048200000000     0          
O300     O      0.000000000000     0.572300000000     0.230400000000     0          
O301     O      0.500000000000     0.049200000000     0.120100000000     0          
O302     O      0.500000000000     0.950800000000     0.120100000000     0          
O303     O      0.950800000000     0.500000000000     0.620100000000     0          
O304     O      0.049200000000     0.500000000000     0.620100000000     0          
O305     O      0.500000000000     0.049200000000     0.879900000000     0          
O306     O      0.500000000000     0.950800000000     0.879900000000     0          
O307     O      0.049200000000     0.500000000000     0.379900000000     0          
O308     O      0.950800000000     0.500000000000     0.379900000000     0          
O309     O      0.427400000000     0.048900000000     0.000000000000     0          
O310     O      0.572600000000     0.951100000000     0.000000000000     0          
O311     O      0.951100000000     0.427400000000     0.500000000000     0          
O312     O      0.048900000000     0.572600000000     0.500000000000     0          
O313     O      0.572600000000     0.048900000000     0.000000000000     0          
O314     O      0.427400000000     0.951100000000     0.000000000000     0          
O315     O      0.048900000000     0.427400000000     0.500000000000     0          
O316     O      0.951100000000     0.572600000000     0.500000000000     0          
S317     S      0.085600000000     0.469300000000     0.000000000000     0          
S318     S      0.914400000000     0.530700000000     0.000000000000     0          
S319     S      0.530700000000     0.914400000000     0.500000000000     0          
S320     S      0.469300000000     0.085600000000     0.500000000000     0          
H321     H      0.331840000000     0.307410000000     0.134340000000     0          
H322     H      0.731870000000     0.808290000000     0.334320000000     0          
H323     H      0.692590000000     0.331840000000     0.634340000000     0          
H324     H      0.307410000000     0.668160000000     0.634340000000     0          
H325     H      0.731870000000     0.191710000000     0.665680000000     0          
H326     H      0.268130000000     0.808290000000     0.665680000000     0          
H327     H      0.191710000000     0.268130000000     0.165680000000     0          
H328     H      0.692590000000     0.668160000000     0.365660000000     0          
H329     H      0.668160000000     0.692590000000     0.865660000000     0          
H330     H      0.191710000000     0.731870000000     0.165680000000     0          
H331     H      0.808290000000     0.268130000000     0.165680000000     0          
H332     H      0.268130000000     0.808290000000     0.334320000000     0          
H333     H      0.731870000000     0.191710000000     0.334320000000     0          
H334     H      0.692590000000     0.668160000000     0.634340000000     0          
H335     H      0.268130000000     0.191710000000     0.665680000000     0          
H336     H      0.191710000000     0.268130000000     0.834320000000     0          


