data_OQUFAJ04

_audit_creation_method RASPA-1.0
_audit_creation_date 2020-12-14
_audit_author_name 'Rocio Bueno-Perez'

_cell_length_a    24.3936
_cell_length_b    24.3936
_cell_length_c    14.571
_cell_angle_alpha 90
_cell_angle_beta  90
_cell_angle_gamma 90
_cell_volume      8670.44

_symmetry_cell_setting          triclinic
_symmetry_space_group_name_Hall 'P 1'
_symmetry_space_group_name_H-M  'P 1'
_symmetry_Int_Tables_number     1

_symmetry_equiv_pos_as_xyz 'x,y,z'

loop_
_atom_site_label
_atom_site_type_symbol
_atom_site_fract_x
_atom_site_fract_y
_atom_site_fract_z
_atom_site_charge
O1       O      0.445800000000     0.146300000000     0.092300000000     0          
O2       O      0.397800000000     0.083100000000     0.169300000000     0          
C3       C      0.296000000000     0.253700000000     0.237000000000     0          
C4       C      0.335100000000     0.265000000000     0.169900000000     0          
C5       C      0.372500000000     0.226500000000     0.140100000000     0          
H6       H      0.403810000000     0.237770000000     0.085160000000     0          
C7       C      0.369800000000     0.173800000000     0.180500000000     0          
C8       C      0.332100000000     0.161400000000     0.246400000000     0          
H9       H      0.331140000000     0.118620000000     0.277850000000     0          
C10      C      0.295100000000     0.201400000000     0.274500000000     0          
C11      C      0.407600000000     0.132600000000     0.138600000000     0          
F12      F      0.198500000000     0.176000000000     0.324000000000     0          
F13      F      0.253000000000     0.216900000000     0.431000000000     0          
F14      F      0.269000000000     0.128500000000     0.391000000000     0          
C15      C      0.256200000000     0.181900000000     0.347400000000     0          
H16      H      0.337040000000     0.307450000000     0.137360000000     0          
O17      O      0.554200000000     0.853700000000     0.092300000000     0          
O18      O      0.602200000000     0.916900000000     0.169300000000     0          
C19      C      0.704000000000     0.746300000000     0.237000000000     0          
C20      C      0.664900000000     0.735000000000     0.169900000000     0          
C21      C      0.627500000000     0.773500000000     0.140100000000     0          
H22      H      0.596190000000     0.762230000000     0.085160000000     0          
C23      C      0.630200000000     0.826200000000     0.180500000000     0          
C24      C      0.667900000000     0.838600000000     0.246400000000     0          
H25      H      0.668860000000     0.881380000000     0.277850000000     0          
C26      C      0.704900000000     0.798600000000     0.274500000000     0          
C27      C      0.592400000000     0.867400000000     0.138600000000     0          
F28      F      0.801500000000     0.824000000000     0.324000000000     0          
F29      F      0.747000000000     0.783100000000     0.431000000000     0          
F30      F      0.731000000000     0.871500000000     0.391000000000     0          
C31      C      0.743800000000     0.818100000000     0.347400000000     0          
H32      H      0.662960000000     0.692550000000     0.137360000000     0          
O33      O      0.853700000000     0.445800000000     0.592300000000     0          
O34      O      0.916900000000     0.397800000000     0.669300000000     0          
C35      C      0.746300000000     0.296000000000     0.737000000000     0          
C36      C      0.735000000000     0.335100000000     0.669900000000     0          
C37      C      0.773500000000     0.372500000000     0.640100000000     0          
H38      H      0.762230000000     0.403810000000     0.585160000000     0          
C39      C      0.826200000000     0.369800000000     0.680500000000     0          
C40      C      0.838600000000     0.332100000000     0.746400000000     0          
H41      H      0.881380000000     0.331140000000     0.777850000000     0          
C42      C      0.798600000000     0.295100000000     0.774500000000     0          
C43      C      0.867400000000     0.407600000000     0.638600000000     0          
F44      F      0.824000000000     0.198500000000     0.824000000000     0          
F45      F      0.783100000000     0.253000000000     0.931000000000     0          
F46      F      0.871500000000     0.269000000000     0.891000000000     0          
C47      C      0.818100000000     0.256200000000     0.847400000000     0          
H48      H      0.692550000000     0.337040000000     0.637360000000     0          
O49      O      0.146300000000     0.554200000000     0.592300000000     0          
O50      O      0.083100000000     0.602200000000     0.669300000000     0          
C51      C      0.253700000000     0.704000000000     0.737000000000     0          
C52      C      0.265000000000     0.664900000000     0.669900000000     0          
C53      C      0.226500000000     0.627500000000     0.640100000000     0          
H54      H      0.237770000000     0.596190000000     0.585160000000     0          
C55      C      0.173800000000     0.630200000000     0.680500000000     0          
C56      C      0.161400000000     0.667900000000     0.746400000000     0          
H57      H      0.118620000000     0.668860000000     0.777850000000     0          
C58      C      0.201400000000     0.704900000000     0.774500000000     0          
C59      C      0.132600000000     0.592400000000     0.638600000000     0          
F60      F      0.176000000000     0.801500000000     0.824000000000     0          
F61      F      0.216900000000     0.747000000000     0.931000000000     0          
F62      F      0.128500000000     0.731000000000     0.891000000000     0          
C63      C      0.181900000000     0.743800000000     0.847400000000     0          
H64      H      0.307450000000     0.662960000000     0.637360000000     0          
O65      O      0.554200000000     0.146300000000     0.907700000000     0          
O66      O      0.602200000000     0.083100000000     0.830700000000     0          
C67      C      0.704000000000     0.253700000000     0.763000000000     0          
C68      C      0.664900000000     0.265000000000     0.830100000000     0          
C69      C      0.627500000000     0.226500000000     0.859900000000     0          
H70      H      0.596190000000     0.237770000000     0.914840000000     0          
C71      C      0.630200000000     0.173800000000     0.819500000000     0          
C72      C      0.667900000000     0.161400000000     0.753600000000     0          
H73      H      0.668860000000     0.118620000000     0.722150000000     0          
C74      C      0.704900000000     0.201400000000     0.725500000000     0          
C75      C      0.592400000000     0.132600000000     0.861400000000     0          
F76      F      0.801500000000     0.176000000000     0.676000000000     0          
F77      F      0.747000000000     0.216900000000     0.569000000000     0          
F78      F      0.731000000000     0.128500000000     0.609000000000     0          
C79      C      0.743800000000     0.181900000000     0.652600000000     0          
H80      H      0.662960000000     0.307450000000     0.862640000000     0          
O81      O      0.445800000000     0.853700000000     0.907700000000     0          
O82      O      0.397800000000     0.916900000000     0.830700000000     0          
C83      C      0.296000000000     0.746300000000     0.763000000000     0          
C84      C      0.335100000000     0.735000000000     0.830100000000     0          
C85      C      0.372500000000     0.773500000000     0.859900000000     0          
H86      H      0.403810000000     0.762230000000     0.914840000000     0          
C87      C      0.369800000000     0.826200000000     0.819500000000     0          
C88      C      0.332100000000     0.838600000000     0.753600000000     0          
H89      H      0.331140000000     0.881380000000     0.722150000000     0          
C90      C      0.295100000000     0.798600000000     0.725500000000     0          
C91      C      0.407600000000     0.867400000000     0.861400000000     0          
F92      F      0.198500000000     0.824000000000     0.676000000000     0          
F93      F      0.253000000000     0.783100000000     0.569000000000     0          
F94      F      0.269000000000     0.871500000000     0.609000000000     0          
C95      C      0.256200000000     0.818100000000     0.652600000000     0          
H96      H      0.337040000000     0.692550000000     0.862640000000     0          
O97      O      0.146300000000     0.445800000000     0.407700000000     0          
O98      O      0.083100000000     0.397800000000     0.330700000000     0          
C99      C      0.253700000000     0.296000000000     0.263000000000     0          
C100     C      0.265000000000     0.335100000000     0.330100000000     0          
C101     C      0.226500000000     0.372500000000     0.359900000000     0          
H102     H      0.237770000000     0.403810000000     0.414840000000     0          
C103     C      0.173800000000     0.369800000000     0.319500000000     0          
C104     C      0.161400000000     0.332100000000     0.253600000000     0          
H105     H      0.118620000000     0.331140000000     0.222150000000     0          
C106     C      0.201400000000     0.295100000000     0.225500000000     0          
C107     C      0.132600000000     0.407600000000     0.361400000000     0          
F108     F      0.176000000000     0.198500000000     0.176000000000     0          
F109     F      0.216900000000     0.253000000000     0.069000000000     0          
F110     F      0.128500000000     0.269000000000     0.109000000000     0          
C111     C      0.181900000000     0.256200000000     0.152600000000     0          
H112     H      0.307450000000     0.337040000000     0.362640000000     0          
O113     O      0.853700000000     0.554200000000     0.407700000000     0          
O114     O      0.916900000000     0.602200000000     0.330700000000     0          
C115     C      0.746300000000     0.704000000000     0.263000000000     0          
C116     C      0.735000000000     0.664900000000     0.330100000000     0          
C117     C      0.773500000000     0.627500000000     0.359900000000     0          
H118     H      0.762230000000     0.596190000000     0.414840000000     0          
C119     C      0.826200000000     0.630200000000     0.319500000000     0          
C120     C      0.838600000000     0.667900000000     0.253600000000     0          
H121     H      0.881380000000     0.668860000000     0.222150000000     0          
C122     C      0.798600000000     0.704900000000     0.225500000000     0          
C123     C      0.867400000000     0.592400000000     0.361400000000     0          
F124     F      0.824000000000     0.801500000000     0.176000000000     0          
F125     F      0.783100000000     0.747000000000     0.069000000000     0          
F126     F      0.871500000000     0.731000000000     0.109000000000     0          
C127     C      0.818100000000     0.743800000000     0.152600000000     0          
H128     H      0.692550000000     0.662960000000     0.362640000000     0          
O129     O      0.554200000000     0.853700000000     0.907700000000     0          
O130     O      0.602200000000     0.916900000000     0.830700000000     0          
C131     C      0.704000000000     0.746300000000     0.763000000000     0          
C132     C      0.664900000000     0.735000000000     0.830100000000     0          
C133     C      0.627500000000     0.773500000000     0.859900000000     0          
H134     H      0.596190000000     0.762230000000     0.914840000000     0          
C135     C      0.630200000000     0.826200000000     0.819500000000     0          
C136     C      0.667900000000     0.838600000000     0.753600000000     0          
H137     H      0.668860000000     0.881380000000     0.722150000000     0          
C138     C      0.704900000000     0.798600000000     0.725500000000     0          
C139     C      0.592400000000     0.867400000000     0.861400000000     0          
F140     F      0.801500000000     0.824000000000     0.676000000000     0          
F141     F      0.747000000000     0.783100000000     0.569000000000     0          
F142     F      0.731000000000     0.871500000000     0.609000000000     0          
C143     C      0.743800000000     0.818100000000     0.652600000000     0          
H144     H      0.662960000000     0.692550000000     0.862640000000     0          
O145     O      0.445800000000     0.146300000000     0.907700000000     0          
O146     O      0.397800000000     0.083100000000     0.830700000000     0          
C147     C      0.296000000000     0.253700000000     0.763000000000     0          
C148     C      0.335100000000     0.265000000000     0.830100000000     0          
C149     C      0.372500000000     0.226500000000     0.859900000000     0          
H150     H      0.403810000000     0.237770000000     0.914840000000     0          
C151     C      0.369800000000     0.173800000000     0.819500000000     0          
C152     C      0.332100000000     0.161400000000     0.753600000000     0          
H153     H      0.331140000000     0.118620000000     0.722150000000     0          
C154     C      0.295100000000     0.201400000000     0.725500000000     0          
C155     C      0.407600000000     0.132600000000     0.861400000000     0          
F156     F      0.198500000000     0.176000000000     0.676000000000     0          
F157     F      0.253000000000     0.216900000000     0.569000000000     0          
F158     F      0.269000000000     0.128500000000     0.609000000000     0          
C159     C      0.256200000000     0.181900000000     0.652600000000     0          
H160     H      0.337040000000     0.307450000000     0.862640000000     0          
O161     O      0.146300000000     0.554200000000     0.407700000000     0          
O162     O      0.083100000000     0.602200000000     0.330700000000     0          
C163     C      0.253700000000     0.704000000000     0.263000000000     0          
C164     C      0.265000000000     0.664900000000     0.330100000000     0          
C165     C      0.226500000000     0.627500000000     0.359900000000     0          
H166     H      0.237770000000     0.596190000000     0.414840000000     0          
C167     C      0.173800000000     0.630200000000     0.319500000000     0          
C168     C      0.161400000000     0.667900000000     0.253600000000     0          
H169     H      0.118620000000     0.668860000000     0.222150000000     0          
C170     C      0.201400000000     0.704900000000     0.225500000000     0          
C171     C      0.132600000000     0.592400000000     0.361400000000     0          
F172     F      0.176000000000     0.801500000000     0.176000000000     0          
F173     F      0.216900000000     0.747000000000     0.069000000000     0          
F174     F      0.128500000000     0.731000000000     0.109000000000     0          
C175     C      0.181900000000     0.743800000000     0.152600000000     0          
H176     H      0.307450000000     0.662960000000     0.362640000000     0          
O177     O      0.853700000000     0.445800000000     0.407700000000     0          
O178     O      0.916900000000     0.397800000000     0.330700000000     0          
C179     C      0.746300000000     0.296000000000     0.263000000000     0          
C180     C      0.735000000000     0.335100000000     0.330100000000     0          
C181     C      0.773500000000     0.372500000000     0.359900000000     0          
H182     H      0.762230000000     0.403810000000     0.414840000000     0          
C183     C      0.826200000000     0.369800000000     0.319500000000     0          
C184     C      0.838600000000     0.332100000000     0.253600000000     0          
H185     H      0.881380000000     0.331140000000     0.222150000000     0          
C186     C      0.798600000000     0.295100000000     0.225500000000     0          
C187     C      0.867400000000     0.407600000000     0.361400000000     0          
F188     F      0.824000000000     0.198500000000     0.176000000000     0          
F189     F      0.783100000000     0.253000000000     0.069000000000     0          
F190     F      0.871500000000     0.269000000000     0.109000000000     0          
C191     C      0.818100000000     0.256200000000     0.152600000000     0          
H192     H      0.692550000000     0.337040000000     0.362640000000     0          
O193     O      0.445800000000     0.853700000000     0.092300000000     0          
O194     O      0.397800000000     0.916900000000     0.169300000000     0          
C195     C      0.296000000000     0.746300000000     0.237000000000     0          
C196     C      0.335100000000     0.735000000000     0.169900000000     0          
C197     C      0.372500000000     0.773500000000     0.140100000000     0          
H198     H      0.403810000000     0.762230000000     0.085160000000     0          
C199     C      0.369800000000     0.826200000000     0.180500000000     0          
C200     C      0.332100000000     0.838600000000     0.246400000000     0          
H201     H      0.331140000000     0.881380000000     0.277850000000     0          
C202     C      0.295100000000     0.798600000000     0.274500000000     0          
C203     C      0.407600000000     0.867400000000     0.138600000000     0          
F204     F      0.198500000000     0.824000000000     0.324000000000     0          
F205     F      0.253000000000     0.783100000000     0.431000000000     0          
F206     F      0.269000000000     0.871500000000     0.391000000000     0          
C207     C      0.256200000000     0.818100000000     0.347400000000     0          
H208     H      0.337040000000     0.692550000000     0.137360000000     0          
O209     O      0.554200000000     0.146300000000     0.092300000000     0          
O210     O      0.602200000000     0.083100000000     0.169300000000     0          
C211     C      0.704000000000     0.253700000000     0.237000000000     0          
C212     C      0.664900000000     0.265000000000     0.169900000000     0          
C213     C      0.627500000000     0.226500000000     0.140100000000     0          
H214     H      0.596190000000     0.237770000000     0.085160000000     0          
C215     C      0.630200000000     0.173800000000     0.180500000000     0          
C216     C      0.667900000000     0.161400000000     0.246400000000     0          
H217     H      0.668860000000     0.118620000000     0.277850000000     0          
C218     C      0.704900000000     0.201400000000     0.274500000000     0          
C219     C      0.592400000000     0.132600000000     0.138600000000     0          
F220     F      0.801500000000     0.176000000000     0.324000000000     0          
F221     F      0.747000000000     0.216900000000     0.431000000000     0          
F222     F      0.731000000000     0.128500000000     0.391000000000     0          
C223     C      0.743800000000     0.181900000000     0.347400000000     0          
H224     H      0.662960000000     0.307450000000     0.137360000000     0          
O225     O      0.853700000000     0.554200000000     0.592300000000     0          
O226     O      0.916900000000     0.602200000000     0.669300000000     0          
C227     C      0.746300000000     0.704000000000     0.737000000000     0          
C228     C      0.735000000000     0.664900000000     0.669900000000     0          
C229     C      0.773500000000     0.627500000000     0.640100000000     0          
H230     H      0.762230000000     0.596190000000     0.585160000000     0          
C231     C      0.826200000000     0.630200000000     0.680500000000     0          
C232     C      0.838600000000     0.667900000000     0.746400000000     0          
H233     H      0.881380000000     0.668860000000     0.777850000000     0          
C234     C      0.798600000000     0.704900000000     0.774500000000     0          
C235     C      0.867400000000     0.592400000000     0.638600000000     0          
F236     F      0.824000000000     0.801500000000     0.824000000000     0          
F237     F      0.783100000000     0.747000000000     0.931000000000     0          
F238     F      0.871500000000     0.731000000000     0.891000000000     0          
C239     C      0.818100000000     0.743800000000     0.847400000000     0          
H240     H      0.692550000000     0.662960000000     0.637360000000     0          
O241     O      0.146300000000     0.445800000000     0.592300000000     0          
O242     O      0.083100000000     0.397800000000     0.669300000000     0          
C243     C      0.253700000000     0.296000000000     0.737000000000     0          
C244     C      0.265000000000     0.335100000000     0.669900000000     0          
C245     C      0.226500000000     0.372500000000     0.640100000000     0          
H246     H      0.237770000000     0.403810000000     0.585160000000     0          
C247     C      0.173800000000     0.369800000000     0.680500000000     0          
C248     C      0.161400000000     0.332100000000     0.746400000000     0          
H249     H      0.118620000000     0.331140000000     0.777850000000     0          
C250     C      0.201400000000     0.295100000000     0.774500000000     0          
C251     C      0.132600000000     0.407600000000     0.638600000000     0          
F252     F      0.176000000000     0.198500000000     0.824000000000     0          
F253     F      0.216900000000     0.253000000000     0.931000000000     0          
F254     F      0.128500000000     0.269000000000     0.891000000000     0          
C255     C      0.181900000000     0.256200000000     0.847400000000     0          
H256     H      0.307450000000     0.337040000000     0.637360000000     0          
Zr257    Zr     0.500000000000     0.099860000000     0.000000000000     0          
Zr258    Zr     0.500000000000     0.900140000000     0.000000000000     0          
Zr259    Zr     0.900140000000     0.500000000000     0.500000000000     0          
Zr260    Zr     0.099860000000     0.500000000000     0.500000000000     0          
Zr261    Zr     0.427640000000     0.000000000000     0.121820000000     0          
Zr262    Zr     0.572360000000     0.000000000000     0.121820000000     0          
Zr263    Zr     0.000000000000     0.427640000000     0.621820000000     0          
Zr264    Zr     0.000000000000     0.572360000000     0.621820000000     0          
Zr265    Zr     0.572360000000     0.000000000000     0.878180000000     0          
Zr266    Zr     0.427640000000     0.000000000000     0.878180000000     0          
Zr267    Zr     0.000000000000     0.427640000000     0.378180000000     0          
Zr268    Zr     0.000000000000     0.572360000000     0.378180000000     0          
O269     O      0.428600000000     0.049800000000     0.000000000000     0          
O270     O      0.571400000000     0.950200000000     0.000000000000     0          
O271     O      0.950200000000     0.428600000000     0.500000000000     0          
O272     O      0.049800000000     0.571400000000     0.500000000000     0          
O273     O      0.571400000000     0.049800000000     0.000000000000     0          
O274     O      0.428600000000     0.950200000000     0.000000000000     0          
O275     O      0.049800000000     0.428600000000     0.500000000000     0          
O276     O      0.950200000000     0.571400000000     0.500000000000     0          
O277     O      0.500000000000     0.047900000000     0.119600000000     0          
O278     O      0.500000000000     0.952100000000     0.119600000000     0          
O279     O      0.952100000000     0.500000000000     0.619600000000     0          
O280     O      0.047900000000     0.500000000000     0.619600000000     0          
O281     O      0.500000000000     0.047900000000     0.880400000000     0          
O282     O      0.500000000000     0.952100000000     0.880400000000     0          
O283     O      0.047900000000     0.500000000000     0.380400000000     0          
O284     O      0.952100000000     0.500000000000     0.380400000000     0          


