data_OQUFUD

_audit_creation_method RASPA-1.0
_audit_creation_date 2020-12-14
_audit_author_name 'Rocio Bueno-Perez'

_cell_length_a    23.7851
_cell_length_b    23.7851
_cell_length_c    16.8399
_cell_angle_alpha 90
_cell_angle_beta  90
_cell_angle_gamma 90
_cell_volume      9526.85

_symmetry_cell_setting          triclinic
_symmetry_space_group_name_Hall 'P 1'
_symmetry_space_group_name_H-M  'P 1'
_symmetry_Int_Tables_number     1

_symmetry_equiv_pos_as_xyz 'x,y,z'

loop_
_atom_site_label
_atom_site_type_symbol
_atom_site_fract_x
_atom_site_fract_y
_atom_site_fract_z
_atom_site_charge
O1       O      0.442340000000     0.150820000000     0.079700000000     0          
O2       O      0.398220000000     0.083600000000     0.150600000000     0          
C3       C      0.407000000000     0.134200000000     0.129500000000     0          
C4       C      0.370500000000     0.177300000000     0.166600000000     0          
C5       C      0.336300000000     0.162900000000     0.229100000000     0          
H6       H      0.336600000000     0.125400000000     0.248800000000     0          
C7       C      0.300900000000     0.203000000000     0.263700000000     0          
C8       C      0.297400000000     0.255800000000     0.233100000000     0          
C9       C      0.332400000000     0.269800000000     0.171300000000     0          
C10      C      0.370200000000     0.231500000000     0.138500000000     0          
H11      H      0.395200000000     0.242700000000     0.097400000000     0          
F12      F      0.341200000000     0.372200000000     0.173100000000     0          
F13      F      0.366100000000     0.334500000000     0.063600000000     0          
C14      C      0.330600000000     0.324600000000     0.126000000000     0          
F15      F      0.280100000000     0.343400000000     0.093400000000     0          
O16      O      0.557660000000     0.849180000000     0.079700000000     0          
O17      O      0.601780000000     0.916400000000     0.150600000000     0          
C18      C      0.593000000000     0.865800000000     0.129500000000     0          
C19      C      0.629500000000     0.822700000000     0.166600000000     0          
C20      C      0.663700000000     0.837100000000     0.229100000000     0          
H21      H      0.663400000000     0.874600000000     0.248800000000     0          
C22      C      0.699100000000     0.797000000000     0.263700000000     0          
C23      C      0.702600000000     0.744200000000     0.233100000000     0          
C24      C      0.667600000000     0.730200000000     0.171300000000     0          
C25      C      0.629800000000     0.768500000000     0.138500000000     0          
H26      H      0.604800000000     0.757300000000     0.097400000000     0          
F27      F      0.658800000000     0.627800000000     0.173100000000     0          
F28      F      0.633900000000     0.665500000000     0.063600000000     0          
C29      C      0.669400000000     0.675400000000     0.126000000000     0          
F30      F      0.719900000000     0.656600000000     0.093400000000     0          
O31      O      0.849180000000     0.442340000000     0.579700000000     0          
O32      O      0.916400000000     0.398220000000     0.650600000000     0          
C33      C      0.865800000000     0.407000000000     0.629500000000     0          
C34      C      0.822700000000     0.370500000000     0.666600000000     0          
C35      C      0.837100000000     0.336300000000     0.729100000000     0          
H36      H      0.874600000000     0.336600000000     0.748800000000     0          
C37      C      0.797000000000     0.300900000000     0.763700000000     0          
C38      C      0.744200000000     0.297400000000     0.733100000000     0          
C39      C      0.730200000000     0.332400000000     0.671300000000     0          
C40      C      0.768500000000     0.370200000000     0.638500000000     0          
H41      H      0.757300000000     0.395200000000     0.597400000000     0          
F42      F      0.627800000000     0.341200000000     0.673100000000     0          
F43      F      0.665500000000     0.366100000000     0.563600000000     0          
C44      C      0.675400000000     0.330600000000     0.626000000000     0          
F45      F      0.656600000000     0.280100000000     0.593400000000     0          
O46      O      0.150820000000     0.557660000000     0.579700000000     0          
O47      O      0.083600000000     0.601780000000     0.650600000000     0          
C48      C      0.134200000000     0.593000000000     0.629500000000     0          
C49      C      0.177300000000     0.629500000000     0.666600000000     0          
C50      C      0.162900000000     0.663700000000     0.729100000000     0          
H51      H      0.125400000000     0.663400000000     0.748800000000     0          
C52      C      0.203000000000     0.699100000000     0.763700000000     0          
C53      C      0.255800000000     0.702600000000     0.733100000000     0          
C54      C      0.269800000000     0.667600000000     0.671300000000     0          
C55      C      0.231500000000     0.629800000000     0.638500000000     0          
H56      H      0.242700000000     0.604800000000     0.597400000000     0          
F57      F      0.126700000000     0.724500000000     0.861000000000     0          
F58      F      0.178800000000     0.790800000000     0.823200000000     0          
F59      F      0.209500000000     0.729600000000     0.904500000000     0          
C60      C      0.179600000000     0.732800000000     0.832300000000     0          
O61      O      0.557660000000     0.150820000000     0.920300000000     0          
O62      O      0.601780000000     0.083600000000     0.849400000000     0          
C63      C      0.593000000000     0.134200000000     0.870500000000     0          
C64      C      0.629500000000     0.177300000000     0.833400000000     0          
C65      C      0.663700000000     0.162900000000     0.770900000000     0          
H66      H      0.663400000000     0.125400000000     0.751200000000     0          
C67      C      0.699100000000     0.203000000000     0.736300000000     0          
C68      C      0.702600000000     0.255800000000     0.766900000000     0          
C69      C      0.667600000000     0.269800000000     0.828700000000     0          
C70      C      0.629800000000     0.231500000000     0.861500000000     0          
H71      H      0.604800000000     0.242700000000     0.902600000000     0          
F72      F      0.658800000000     0.372200000000     0.826900000000     0          
F73      F      0.633900000000     0.334500000000     0.936400000000     0          
C74      C      0.669400000000     0.324600000000     0.874000000000     0          
F75      F      0.719900000000     0.343400000000     0.906600000000     0          
O76      O      0.442340000000     0.849180000000     0.920300000000     0          
O77      O      0.398220000000     0.916400000000     0.849400000000     0          
C78      C      0.407000000000     0.865800000000     0.870500000000     0          
C79      C      0.370500000000     0.822700000000     0.833400000000     0          
C80      C      0.336300000000     0.837100000000     0.770900000000     0          
H81      H      0.336600000000     0.874600000000     0.751200000000     0          
C82      C      0.300900000000     0.797000000000     0.736300000000     0          
C83      C      0.297400000000     0.744200000000     0.766900000000     0          
C84      C      0.332400000000     0.730200000000     0.828700000000     0          
C85      C      0.370200000000     0.768500000000     0.861500000000     0          
H86      H      0.395200000000     0.757300000000     0.902600000000     0          
F87      F      0.341200000000     0.627800000000     0.826900000000     0          
F88      F      0.366100000000     0.665500000000     0.936400000000     0          
C89      C      0.330600000000     0.675400000000     0.874000000000     0          
F90      F      0.280100000000     0.656600000000     0.906600000000     0          
O91      O      0.150820000000     0.442340000000     0.420300000000     0          
O92      O      0.083600000000     0.398220000000     0.349400000000     0          
C93      C      0.134200000000     0.407000000000     0.370500000000     0          
C94      C      0.177300000000     0.370500000000     0.333400000000     0          
C95      C      0.162900000000     0.336300000000     0.270900000000     0          
H96      H      0.125400000000     0.336600000000     0.251200000000     0          
C97      C      0.203000000000     0.300900000000     0.236300000000     0          
C98      C      0.255800000000     0.297400000000     0.266900000000     0          
C99      C      0.269800000000     0.332400000000     0.328700000000     0          
C100     C      0.231500000000     0.370200000000     0.361500000000     0          
H101     H      0.242700000000     0.395200000000     0.402600000000     0          
F102     F      0.126700000000     0.275500000000     0.139000000000     0          
F103     F      0.178800000000     0.209200000000     0.176800000000     0          
F104     F      0.209500000000     0.270400000000     0.095500000000     0          
C105     C      0.179600000000     0.267200000000     0.167700000000     0          
O106     O      0.849180000000     0.557660000000     0.420300000000     0          
O107     O      0.916400000000     0.601780000000     0.349400000000     0          
C108     C      0.865800000000     0.593000000000     0.370500000000     0          
C109     C      0.822700000000     0.629500000000     0.333400000000     0          
C110     C      0.837100000000     0.663700000000     0.270900000000     0          
H111     H      0.874600000000     0.663400000000     0.251200000000     0          
C112     C      0.797000000000     0.699100000000     0.236300000000     0          
C113     C      0.744200000000     0.702600000000     0.266900000000     0          
C114     C      0.730200000000     0.667600000000     0.328700000000     0          
C115     C      0.768500000000     0.629800000000     0.361500000000     0          
H116     H      0.757300000000     0.604800000000     0.402600000000     0          
F117     F      0.873300000000     0.724500000000     0.139000000000     0          
F118     F      0.821200000000     0.790800000000     0.176800000000     0          
F119     F      0.790500000000     0.729600000000     0.095500000000     0          
C120     C      0.820400000000     0.732800000000     0.167700000000     0          
O121     O      0.557660000000     0.849180000000     0.920300000000     0          
O122     O      0.601780000000     0.916400000000     0.849400000000     0          
C123     C      0.593000000000     0.865800000000     0.870500000000     0          
C124     C      0.629500000000     0.822700000000     0.833400000000     0          
C125     C      0.663700000000     0.837100000000     0.770900000000     0          
H126     H      0.663400000000     0.874600000000     0.751200000000     0          
C127     C      0.699100000000     0.797000000000     0.736300000000     0          
C128     C      0.702600000000     0.744200000000     0.766900000000     0          
C129     C      0.667600000000     0.730200000000     0.828700000000     0          
C130     C      0.629800000000     0.768500000000     0.861500000000     0          
H131     H      0.604800000000     0.757300000000     0.902600000000     0          
F132     F      0.724500000000     0.873300000000     0.639000000000     0          
F133     F      0.790800000000     0.821200000000     0.676800000000     0          
F134     F      0.729600000000     0.790500000000     0.595500000000     0          
C135     C      0.732800000000     0.820400000000     0.667700000000     0          
O136     O      0.442340000000     0.150820000000     0.920300000000     0          
O137     O      0.398220000000     0.083600000000     0.849400000000     0          
C138     C      0.407000000000     0.134200000000     0.870500000000     0          
C139     C      0.370500000000     0.177300000000     0.833400000000     0          
C140     C      0.336300000000     0.162900000000     0.770900000000     0          
H141     H      0.336600000000     0.125400000000     0.751200000000     0          
C142     C      0.300900000000     0.203000000000     0.736300000000     0          
C143     C      0.297400000000     0.255800000000     0.766900000000     0          
C144     C      0.332400000000     0.269800000000     0.828700000000     0          
C145     C      0.370200000000     0.231500000000     0.861500000000     0          
H146     H      0.395200000000     0.242700000000     0.902600000000     0          
F147     F      0.275500000000     0.126700000000     0.639000000000     0          
F148     F      0.209200000000     0.178800000000     0.676800000000     0          
F149     F      0.270400000000     0.209500000000     0.595500000000     0          
C150     C      0.267200000000     0.179600000000     0.667700000000     0          
O151     O      0.150820000000     0.557660000000     0.420300000000     0          
O152     O      0.083600000000     0.601780000000     0.349400000000     0          
C153     C      0.134200000000     0.593000000000     0.370500000000     0          
C154     C      0.177300000000     0.629500000000     0.333400000000     0          
C155     C      0.162900000000     0.663700000000     0.270900000000     0          
H156     H      0.125400000000     0.663400000000     0.251200000000     0          
C157     C      0.203000000000     0.699100000000     0.236300000000     0          
C158     C      0.255800000000     0.702600000000     0.266900000000     0          
C159     C      0.269800000000     0.667600000000     0.328700000000     0          
C160     C      0.231500000000     0.629800000000     0.361500000000     0          
H161     H      0.242700000000     0.604800000000     0.402600000000     0          
F162     F      0.126700000000     0.724500000000     0.139000000000     0          
F163     F      0.178800000000     0.790800000000     0.176800000000     0          
F164     F      0.209500000000     0.729600000000     0.095500000000     0          
C165     C      0.179600000000     0.732800000000     0.167700000000     0          
O166     O      0.849180000000     0.442340000000     0.420300000000     0          
O167     O      0.916400000000     0.398220000000     0.349400000000     0          
C168     C      0.865800000000     0.407000000000     0.370500000000     0          
C169     C      0.822700000000     0.370500000000     0.333400000000     0          
C170     C      0.837100000000     0.336300000000     0.270900000000     0          
H171     H      0.874600000000     0.336600000000     0.251200000000     0          
C172     C      0.797000000000     0.300900000000     0.236300000000     0          
C173     C      0.744200000000     0.297400000000     0.266900000000     0          
C174     C      0.730200000000     0.332400000000     0.328700000000     0          
C175     C      0.768500000000     0.370200000000     0.361500000000     0          
H176     H      0.757300000000     0.395200000000     0.402600000000     0          
F177     F      0.873300000000     0.275500000000     0.139000000000     0          
F178     F      0.821200000000     0.209200000000     0.176800000000     0          
F179     F      0.790500000000     0.270400000000     0.095500000000     0          
C180     C      0.820400000000     0.267200000000     0.167700000000     0          
O181     O      0.442340000000     0.849180000000     0.079700000000     0          
O182     O      0.398220000000     0.916400000000     0.150600000000     0          
C183     C      0.407000000000     0.865800000000     0.129500000000     0          
C184     C      0.370500000000     0.822700000000     0.166600000000     0          
C185     C      0.336300000000     0.837100000000     0.229100000000     0          
H186     H      0.336600000000     0.874600000000     0.248800000000     0          
C187     C      0.300900000000     0.797000000000     0.263700000000     0          
C188     C      0.297400000000     0.744200000000     0.233100000000     0          
C189     C      0.332400000000     0.730200000000     0.171300000000     0          
C190     C      0.370200000000     0.768500000000     0.138500000000     0          
H191     H      0.395200000000     0.757300000000     0.097400000000     0          
F192     F      0.341200000000     0.627800000000     0.173100000000     0          
F193     F      0.366100000000     0.665500000000     0.063600000000     0          
C194     C      0.330600000000     0.675400000000     0.126000000000     0          
F195     F      0.280100000000     0.656600000000     0.093400000000     0          
O196     O      0.557660000000     0.150820000000     0.079700000000     0          
O197     O      0.601780000000     0.083600000000     0.150600000000     0          
C198     C      0.593000000000     0.134200000000     0.129500000000     0          
C199     C      0.629500000000     0.177300000000     0.166600000000     0          
C200     C      0.663700000000     0.162900000000     0.229100000000     0          
H201     H      0.663400000000     0.125400000000     0.248800000000     0          
C202     C      0.699100000000     0.203000000000     0.263700000000     0          
C203     C      0.702600000000     0.255800000000     0.233100000000     0          
C204     C      0.667600000000     0.269800000000     0.171300000000     0          
C205     C      0.629800000000     0.231500000000     0.138500000000     0          
H206     H      0.604800000000     0.242700000000     0.097400000000     0          
F207     F      0.724500000000     0.126700000000     0.361000000000     0          
F208     F      0.790800000000     0.178800000000     0.323200000000     0          
F209     F      0.729600000000     0.209500000000     0.404500000000     0          
C210     C      0.732800000000     0.179600000000     0.332300000000     0          
O211     O      0.849180000000     0.557660000000     0.579700000000     0          
O212     O      0.916400000000     0.601780000000     0.650600000000     0          
C213     C      0.865800000000     0.593000000000     0.629500000000     0          
C214     C      0.822700000000     0.629500000000     0.666600000000     0          
C215     C      0.837100000000     0.663700000000     0.729100000000     0          
H216     H      0.874600000000     0.663400000000     0.748800000000     0          
C217     C      0.797000000000     0.699100000000     0.763700000000     0          
C218     C      0.744200000000     0.702600000000     0.733100000000     0          
C219     C      0.730200000000     0.667600000000     0.671300000000     0          
C220     C      0.768500000000     0.629800000000     0.638500000000     0          
H221     H      0.757300000000     0.604800000000     0.597400000000     0          
F222     F      0.873300000000     0.724500000000     0.861000000000     0          
F223     F      0.821200000000     0.790800000000     0.823200000000     0          
F224     F      0.790500000000     0.729600000000     0.904500000000     0          
C225     C      0.820400000000     0.732800000000     0.832300000000     0          
O226     O      0.150820000000     0.442340000000     0.579700000000     0          
O227     O      0.083600000000     0.398220000000     0.650600000000     0          
C228     C      0.134200000000     0.407000000000     0.629500000000     0          
C229     C      0.177300000000     0.370500000000     0.666600000000     0          
C230     C      0.162900000000     0.336300000000     0.729100000000     0          
H231     H      0.125400000000     0.336600000000     0.748800000000     0          
C232     C      0.203000000000     0.300900000000     0.763700000000     0          
C233     C      0.255800000000     0.297400000000     0.733100000000     0          
C234     C      0.269800000000     0.332400000000     0.671300000000     0          
C235     C      0.231500000000     0.370200000000     0.638500000000     0          
H236     H      0.242700000000     0.395200000000     0.597400000000     0          
F237     F      0.372200000000     0.341200000000     0.673100000000     0          
F238     F      0.334500000000     0.366100000000     0.563600000000     0          
C239     C      0.324600000000     0.330600000000     0.626000000000     0          
F240     F      0.343400000000     0.280100000000     0.593400000000     0          
Zr241    Zr     0.500000000000     0.104110000000     0.000000000000     0          
Zr242    Zr     0.500000000000     0.895890000000     0.000000000000     0          
Zr243    Zr     0.895890000000     0.500000000000     0.500000000000     0          
Zr244    Zr     0.104110000000     0.500000000000     0.500000000000     0          
Zr245    Zr     0.426870000000     0.000000000000     0.104960000000     0          
O246     O      0.453000000000     0.000000000000     0.230900000000     0          
Zr247    Zr     0.573130000000     0.000000000000     0.104960000000     0          
O248     O      0.547000000000     0.000000000000     0.230900000000     0          
C249     C      0.557000000000     0.000000000000     0.375400000000     0          
H250     H      0.586500000000     0.000000000000     0.337400000000     0          
C251     C      0.570700000000     0.000000000000     0.456700000000     0          
H252     H      0.609400000000     0.000000000000     0.470700000000     0          
C253     C      0.527880000000     0.000000000000     0.511900000000     0          
C254     C      0.458400000000     0.000000000000     0.407200000000     0          
H255     H      0.419300000000     0.000000000000     0.393700000000     0          
Zr256    Zr     0.000000000000     0.426870000000     0.604960000000     0          
O257     O      0.000000000000     0.453000000000     0.730900000000     0          
Zr258    Zr     0.000000000000     0.573130000000     0.604960000000     0          
O259     O      0.000000000000     0.547000000000     0.730900000000     0          
C260     C      0.000000000000     0.557000000000     0.875400000000     0          
H261     H      0.000000000000     0.586500000000     0.837400000000     0          
C262     C      0.000000000000     0.570700000000     0.956700000000     0          
H263     H      0.000000000000     0.609400000000     0.970700000000     0          
C264     C      0.000000000000     0.527880000000     0.011900000000     0          
C265     C      0.000000000000     0.458400000000     0.907200000000     0          
H266     H      0.000000000000     0.419300000000     0.893700000000     0          
Zr267    Zr     0.573130000000     0.000000000000     0.895040000000     0          
O268     O      0.547000000000     0.000000000000     0.769100000000     0          
Zr269    Zr     0.426870000000     0.000000000000     0.895040000000     0          
O270     O      0.453000000000     0.000000000000     0.769100000000     0          
C271     C      0.443000000000     0.000000000000     0.624600000000     0          
H272     H      0.413500000000     0.000000000000     0.662600000000     0          
C273     C      0.429300000000     0.000000000000     0.543300000000     0          
H274     H      0.390600000000     0.000000000000     0.529300000000     0          
C275     C      0.472120000000     0.000000000000     0.488100000000     0          
C276     C      0.541600000000     0.000000000000     0.592800000000     0          
H277     H      0.580700000000     0.000000000000     0.606300000000     0          
Zr278    Zr     0.000000000000     0.426870000000     0.395040000000     0          
O279     O      0.000000000000     0.453000000000     0.269100000000     0          
C280     C      0.000000000000     0.443000000000     0.124600000000     0          
H281     H      0.000000000000     0.413500000000     0.162600000000     0          
C282     C      0.000000000000     0.429300000000     0.043300000000     0          
H283     H      0.000000000000     0.390600000000     0.029300000000     0          
C284     C      0.000000000000     0.472120000000     0.988100000000     0          
C285     C      0.000000000000     0.541600000000     0.092800000000     0          
H286     H      0.000000000000     0.580700000000     0.106300000000     0          
Zr287    Zr     0.000000000000     0.573130000000     0.395040000000     0          
O288     O      0.000000000000     0.547000000000     0.269100000000     0          
O289     O      0.424100000000     0.050700000000     0.000000000000     0          
O290     O      0.575900000000     0.949300000000     0.000000000000     0          
O291     O      0.949300000000     0.424100000000     0.500000000000     0          
O292     O      0.050700000000     0.575900000000     0.500000000000     0          
O293     O      0.575900000000     0.050700000000     0.000000000000     0          
O294     O      0.424100000000     0.949300000000     0.000000000000     0          
O295     O      0.050700000000     0.424100000000     0.500000000000     0          
O296     O      0.949300000000     0.575900000000     0.500000000000     0          
O297     O      0.500000000000     0.050800000000     0.099800000000     0          
O298     O      0.500000000000     0.949200000000     0.099800000000     0          
O299     O      0.949200000000     0.500000000000     0.599800000000     0          
O300     O      0.050800000000     0.500000000000     0.599800000000     0          
O301     O      0.500000000000     0.050800000000     0.900200000000     0          
O302     O      0.500000000000     0.949200000000     0.900200000000     0          
O303     O      0.050800000000     0.500000000000     0.400200000000     0          
O304     O      0.949200000000     0.500000000000     0.400200000000     0          
C305     C      0.500000000000     0.000000000000     0.265600000000     0          
C306     C      0.500000000000     0.000000000000     0.351500000000     0          
C307     C      0.000000000000     0.500000000000     0.765600000000     0          
C308     C      0.000000000000     0.500000000000     0.851500000000     0          
C309     C      0.500000000000     0.000000000000     0.734400000000     0          
C310     C      0.500000000000     0.000000000000     0.648500000000     0          
C311     C      0.000000000000     0.500000000000     0.234400000000     0          
C312     C      0.000000000000     0.500000000000     0.148500000000     0          
H313     H      0.274680000000     0.191530000000     0.318010000000     0          
H314     H      0.725320000000     0.808470000000     0.318010000000     0          
H315     H      0.808470000000     0.274680000000     0.818010000000     0          
H316     H      0.313990000000     0.668880000000     0.645150000000     0          
H317     H      0.725320000000     0.191530000000     0.681990000000     0          
H318     H      0.274680000000     0.808470000000     0.681990000000     0          
H319     H      0.313990000000     0.331120000000     0.354850000000     0          
H320     H      0.686010000000     0.668880000000     0.354850000000     0          
H321     H      0.668880000000     0.686010000000     0.854850000000     0          
H322     H      0.331120000000     0.313990000000     0.854850000000     0          
H323     H      0.313990000000     0.668880000000     0.354850000000     0          
H324     H      0.686010000000     0.331120000000     0.354850000000     0          
H325     H      0.274680000000     0.808470000000     0.318010000000     0          
H326     H      0.668880000000     0.313990000000     0.145150000000     0          
H327     H      0.686010000000     0.668880000000     0.645150000000     0          
H328     H      0.191530000000     0.274680000000     0.818010000000     0          


