data_OQUFAJ03

_audit_creation_method RASPA-1.0
_audit_creation_date 2020-12-14
_audit_author_name 'Rocio Bueno-Perez'

_cell_length_a    24.295
_cell_length_b    24.295
_cell_length_c    15.0574
_cell_angle_alpha 90
_cell_angle_beta  90
_cell_angle_gamma 90
_cell_volume      8887.59

_symmetry_cell_setting          triclinic
_symmetry_space_group_name_Hall 'P 1'
_symmetry_space_group_name_H-M  'P 1'
_symmetry_Int_Tables_number     1

_symmetry_equiv_pos_as_xyz 'x,y,z'

loop_
_atom_site_label
_atom_site_type_symbol
_atom_site_fract_x
_atom_site_fract_y
_atom_site_fract_z
_atom_site_charge
F1       F      0.344400000000     0.294000000000     0.080300000000     0          
F2       F      0.329800000000     0.381000000000     0.057600000000     0          
F3       F      0.367000000000     0.351300000000     0.184800000000     0          
O4       O      0.147850000000     0.444650000000     0.087800000000     0          
O5       O      0.083620000000     0.397540000000     0.164600000000     0          
C6       C      0.254200000000     0.296300000000     0.232900000000     0          
C7       C      0.266900000000     0.334200000000     0.169100000000     0          
C8       C      0.227600000000     0.371400000000     0.139000000000     0          
H9       H      0.236600000000     0.397500000000     0.094500000000     0          
C10      C      0.175800000000     0.369800000000     0.174100000000     0          
C11      C      0.162700000000     0.334400000000     0.241300000000     0          
H12      H      0.127200000000     0.335700000000     0.267800000000     0          
C13      C      0.201500000000     0.296500000000     0.271000000000     0          
C14      C      0.132600000000     0.407400000000     0.138800000000     0          
C15      C      0.322500000000     0.341600000000     0.124400000000     0          
H16      H      0.190860000000     0.265830000000     0.325670000000     0          
F17      F      0.655600000000     0.706000000000     0.080300000000     0          
F18      F      0.670200000000     0.619000000000     0.057600000000     0          
F19      F      0.633000000000     0.648700000000     0.184800000000     0          
O20      O      0.852150000000     0.555350000000     0.087800000000     0          
O21      O      0.916380000000     0.602460000000     0.164600000000     0          
C22      C      0.745800000000     0.703700000000     0.232900000000     0          
C23      C      0.733100000000     0.665800000000     0.169100000000     0          
C24      C      0.772400000000     0.628600000000     0.139000000000     0          
H25      H      0.763400000000     0.602500000000     0.094500000000     0          
C26      C      0.824200000000     0.630200000000     0.174100000000     0          
C27      C      0.837300000000     0.665600000000     0.241300000000     0          
H28      H      0.872800000000     0.664300000000     0.267800000000     0          
C29      C      0.798500000000     0.703500000000     0.271000000000     0          
C30      C      0.867400000000     0.592600000000     0.138800000000     0          
C31      C      0.677500000000     0.658400000000     0.124400000000     0          
H32      H      0.809140000000     0.734170000000     0.325670000000     0          
F33      F      0.706000000000     0.344400000000     0.580300000000     0          
F34      F      0.619000000000     0.329800000000     0.557600000000     0          
F35      F      0.648700000000     0.367000000000     0.684800000000     0          
O36      O      0.555350000000     0.147850000000     0.587800000000     0          
O37      O      0.602460000000     0.083620000000     0.664600000000     0          
C38      C      0.703700000000     0.254200000000     0.732900000000     0          
C39      C      0.665800000000     0.266900000000     0.669100000000     0          
C40      C      0.628600000000     0.227600000000     0.639000000000     0          
H41      H      0.602500000000     0.236600000000     0.594500000000     0          
C42      C      0.630200000000     0.175800000000     0.674100000000     0          
C43      C      0.665600000000     0.162700000000     0.741300000000     0          
H44      H      0.664300000000     0.127200000000     0.767800000000     0          
C45      C      0.703500000000     0.201500000000     0.771000000000     0          
C46      C      0.592600000000     0.132600000000     0.638800000000     0          
C47      C      0.658400000000     0.322500000000     0.624400000000     0          
H48      H      0.734170000000     0.190860000000     0.825670000000     0          
F49      F      0.294000000000     0.655600000000     0.580300000000     0          
F50      F      0.381000000000     0.670200000000     0.557600000000     0          
F51      F      0.351300000000     0.633000000000     0.684800000000     0          
O52      O      0.444650000000     0.852150000000     0.587800000000     0          
O53      O      0.397540000000     0.916380000000     0.664600000000     0          
C54      C      0.296300000000     0.745800000000     0.732900000000     0          
C55      C      0.334200000000     0.733100000000     0.669100000000     0          
C56      C      0.371400000000     0.772400000000     0.639000000000     0          
H57      H      0.397500000000     0.763400000000     0.594500000000     0          
C58      C      0.369800000000     0.824200000000     0.674100000000     0          
C59      C      0.334400000000     0.837300000000     0.741300000000     0          
H60      H      0.335700000000     0.872800000000     0.767800000000     0          
C61      C      0.296500000000     0.798500000000     0.771000000000     0          
C62      C      0.407400000000     0.867400000000     0.638800000000     0          
C63      C      0.341600000000     0.677500000000     0.624400000000     0          
H64      H      0.265830000000     0.809140000000     0.825670000000     0          
F65      F      0.655600000000     0.294000000000     0.919700000000     0          
F66      F      0.670200000000     0.381000000000     0.942400000000     0          
F67      F      0.633000000000     0.351300000000     0.815200000000     0          
O68      O      0.852150000000     0.444650000000     0.912200000000     0          
O69      O      0.916380000000     0.397540000000     0.835400000000     0          
C70      C      0.745800000000     0.296300000000     0.767100000000     0          
C71      C      0.733100000000     0.334200000000     0.830900000000     0          
C72      C      0.772400000000     0.371400000000     0.861000000000     0          
H73      H      0.763400000000     0.397500000000     0.905500000000     0          
C74      C      0.824200000000     0.369800000000     0.825900000000     0          
C75      C      0.837300000000     0.334400000000     0.758700000000     0          
H76      H      0.872800000000     0.335700000000     0.732200000000     0          
C77      C      0.798500000000     0.296500000000     0.729000000000     0          
C78      C      0.867400000000     0.407400000000     0.861200000000     0          
C79      C      0.677500000000     0.341600000000     0.875600000000     0          
H80      H      0.809140000000     0.265830000000     0.674330000000     0          
F81      F      0.344400000000     0.706000000000     0.919700000000     0          
F82      F      0.329800000000     0.619000000000     0.942400000000     0          
F83      F      0.367000000000     0.648700000000     0.815200000000     0          
O84      O      0.147850000000     0.555350000000     0.912200000000     0          
O85      O      0.083620000000     0.602460000000     0.835400000000     0          
C86      C      0.254200000000     0.703700000000     0.767100000000     0          
C87      C      0.266900000000     0.665800000000     0.830900000000     0          
C88      C      0.227600000000     0.628600000000     0.861000000000     0          
H89      H      0.236600000000     0.602500000000     0.905500000000     0          
C90      C      0.175800000000     0.630200000000     0.825900000000     0          
C91      C      0.162700000000     0.665600000000     0.758700000000     0          
H92      H      0.127200000000     0.664300000000     0.732200000000     0          
C93      C      0.201500000000     0.703500000000     0.729000000000     0          
C94      C      0.132600000000     0.592600000000     0.861200000000     0          
C95      C      0.322500000000     0.658400000000     0.875600000000     0          
H96      H      0.190860000000     0.734170000000     0.674330000000     0          
F97      F      0.294000000000     0.344400000000     0.419700000000     0          
F98      F      0.381000000000     0.329800000000     0.442400000000     0          
F99      F      0.351300000000     0.367000000000     0.315200000000     0          
O100     O      0.444650000000     0.147850000000     0.412200000000     0          
O101     O      0.397540000000     0.083620000000     0.335400000000     0          
C102     C      0.296300000000     0.254200000000     0.267100000000     0          
C103     C      0.334200000000     0.266900000000     0.330900000000     0          
C104     C      0.371400000000     0.227600000000     0.361000000000     0          
H105     H      0.397500000000     0.236600000000     0.405500000000     0          
C106     C      0.369800000000     0.175800000000     0.325900000000     0          
C107     C      0.334400000000     0.162700000000     0.258700000000     0          
H108     H      0.335700000000     0.127200000000     0.232200000000     0          
C109     C      0.296500000000     0.201500000000     0.229000000000     0          
C110     C      0.407400000000     0.132600000000     0.361200000000     0          
C111     C      0.341600000000     0.322500000000     0.375600000000     0          
H112     H      0.265830000000     0.190860000000     0.174330000000     0          
F113     F      0.706000000000     0.655600000000     0.419700000000     0          
F114     F      0.619000000000     0.670200000000     0.442400000000     0          
F115     F      0.648700000000     0.633000000000     0.315200000000     0          
O116     O      0.555350000000     0.852150000000     0.412200000000     0          
O117     O      0.602460000000     0.916380000000     0.335400000000     0          
C118     C      0.703700000000     0.745800000000     0.267100000000     0          
C119     C      0.665800000000     0.733100000000     0.330900000000     0          
C120     C      0.628600000000     0.772400000000     0.361000000000     0          
H121     H      0.602500000000     0.763400000000     0.405500000000     0          
C122     C      0.630200000000     0.824200000000     0.325900000000     0          
C123     C      0.665600000000     0.837300000000     0.258700000000     0          
H124     H      0.664300000000     0.872800000000     0.232200000000     0          
C125     C      0.703500000000     0.798500000000     0.229000000000     0          
C126     C      0.592600000000     0.867400000000     0.361200000000     0          
C127     C      0.658400000000     0.677500000000     0.375600000000     0          
H128     H      0.734170000000     0.809140000000     0.174330000000     0          
F129     F      0.655600000000     0.706000000000     0.919700000000     0          
F130     F      0.670200000000     0.619000000000     0.942400000000     0          
F131     F      0.633000000000     0.648700000000     0.815200000000     0          
O132     O      0.852150000000     0.555350000000     0.912200000000     0          
O133     O      0.916380000000     0.602460000000     0.835400000000     0          
C134     C      0.745800000000     0.703700000000     0.767100000000     0          
C135     C      0.733100000000     0.665800000000     0.830900000000     0          
C136     C      0.772400000000     0.628600000000     0.861000000000     0          
H137     H      0.763400000000     0.602500000000     0.905500000000     0          
C138     C      0.824200000000     0.630200000000     0.825900000000     0          
C139     C      0.837300000000     0.665600000000     0.758700000000     0          
H140     H      0.872800000000     0.664300000000     0.732200000000     0          
C141     C      0.798500000000     0.703500000000     0.729000000000     0          
C142     C      0.867400000000     0.592600000000     0.861200000000     0          
C143     C      0.677500000000     0.658400000000     0.875600000000     0          
H144     H      0.809140000000     0.734170000000     0.674330000000     0          
F145     F      0.344400000000     0.294000000000     0.919700000000     0          
F146     F      0.329800000000     0.381000000000     0.942400000000     0          
F147     F      0.367000000000     0.351300000000     0.815200000000     0          
O148     O      0.147850000000     0.444650000000     0.912200000000     0          
O149     O      0.083620000000     0.397540000000     0.835400000000     0          
C150     C      0.254200000000     0.296300000000     0.767100000000     0          
C151     C      0.266900000000     0.334200000000     0.830900000000     0          
C152     C      0.227600000000     0.371400000000     0.861000000000     0          
H153     H      0.236600000000     0.397500000000     0.905500000000     0          
C154     C      0.175800000000     0.369800000000     0.825900000000     0          
C155     C      0.162700000000     0.334400000000     0.758700000000     0          
H156     H      0.127200000000     0.335700000000     0.732200000000     0          
C157     C      0.201500000000     0.296500000000     0.729000000000     0          
C158     C      0.132600000000     0.407400000000     0.861200000000     0          
C159     C      0.322500000000     0.341600000000     0.875600000000     0          
H160     H      0.190860000000     0.265830000000     0.674330000000     0          
F161     F      0.294000000000     0.655600000000     0.419700000000     0          
F162     F      0.381000000000     0.670200000000     0.442400000000     0          
F163     F      0.351300000000     0.633000000000     0.315200000000     0          
O164     O      0.444650000000     0.852150000000     0.412200000000     0          
O165     O      0.397540000000     0.916380000000     0.335400000000     0          
C166     C      0.296300000000     0.745800000000     0.267100000000     0          
C167     C      0.334200000000     0.733100000000     0.330900000000     0          
C168     C      0.371400000000     0.772400000000     0.361000000000     0          
H169     H      0.397500000000     0.763400000000     0.405500000000     0          
C170     C      0.369800000000     0.824200000000     0.325900000000     0          
C171     C      0.334400000000     0.837300000000     0.258700000000     0          
H172     H      0.335700000000     0.872800000000     0.232200000000     0          
C173     C      0.296500000000     0.798500000000     0.229000000000     0          
C174     C      0.407400000000     0.867400000000     0.361200000000     0          
C175     C      0.341600000000     0.677500000000     0.375600000000     0          
H176     H      0.265830000000     0.809140000000     0.174330000000     0          
F177     F      0.706000000000     0.344400000000     0.419700000000     0          
F178     F      0.619000000000     0.329800000000     0.442400000000     0          
F179     F      0.648700000000     0.367000000000     0.315200000000     0          
O180     O      0.555350000000     0.147850000000     0.412200000000     0          
O181     O      0.602460000000     0.083620000000     0.335400000000     0          
C182     C      0.703700000000     0.254200000000     0.267100000000     0          
C183     C      0.665800000000     0.266900000000     0.330900000000     0          
C184     C      0.628600000000     0.227600000000     0.361000000000     0          
H185     H      0.602500000000     0.236600000000     0.405500000000     0          
C186     C      0.630200000000     0.175800000000     0.325900000000     0          
C187     C      0.665600000000     0.162700000000     0.258700000000     0          
H188     H      0.664300000000     0.127200000000     0.232200000000     0          
C189     C      0.703500000000     0.201500000000     0.229000000000     0          
C190     C      0.592600000000     0.132600000000     0.361200000000     0          
C191     C      0.658400000000     0.322500000000     0.375600000000     0          
H192     H      0.734170000000     0.190860000000     0.174330000000     0          
F193     F      0.344400000000     0.706000000000     0.080300000000     0          
F194     F      0.329800000000     0.619000000000     0.057600000000     0          
F195     F      0.367000000000     0.648700000000     0.184800000000     0          
O196     O      0.147850000000     0.555350000000     0.087800000000     0          
O197     O      0.083620000000     0.602460000000     0.164600000000     0          
C198     C      0.254200000000     0.703700000000     0.232900000000     0          
C199     C      0.266900000000     0.665800000000     0.169100000000     0          
C200     C      0.227600000000     0.628600000000     0.139000000000     0          
H201     H      0.236600000000     0.602500000000     0.094500000000     0          
C202     C      0.175800000000     0.630200000000     0.174100000000     0          
C203     C      0.162700000000     0.665600000000     0.241300000000     0          
H204     H      0.127200000000     0.664300000000     0.267800000000     0          
C205     C      0.201500000000     0.703500000000     0.271000000000     0          
C206     C      0.132600000000     0.592600000000     0.138800000000     0          
C207     C      0.322500000000     0.658400000000     0.124400000000     0          
H208     H      0.190860000000     0.734170000000     0.325670000000     0          
F209     F      0.655600000000     0.294000000000     0.080300000000     0          
F210     F      0.670200000000     0.381000000000     0.057600000000     0          
F211     F      0.633000000000     0.351300000000     0.184800000000     0          
O212     O      0.852150000000     0.444650000000     0.087800000000     0          
O213     O      0.916380000000     0.397540000000     0.164600000000     0          
C214     C      0.745800000000     0.296300000000     0.232900000000     0          
C215     C      0.733100000000     0.334200000000     0.169100000000     0          
C216     C      0.772400000000     0.371400000000     0.139000000000     0          
H217     H      0.763400000000     0.397500000000     0.094500000000     0          
C218     C      0.824200000000     0.369800000000     0.174100000000     0          
C219     C      0.837300000000     0.334400000000     0.241300000000     0          
H220     H      0.872800000000     0.335700000000     0.267800000000     0          
C221     C      0.798500000000     0.296500000000     0.271000000000     0          
C222     C      0.867400000000     0.407400000000     0.138800000000     0          
C223     C      0.677500000000     0.341600000000     0.124400000000     0          
H224     H      0.809140000000     0.265830000000     0.325670000000     0          
F225     F      0.706000000000     0.655600000000     0.580300000000     0          
F226     F      0.619000000000     0.670200000000     0.557600000000     0          
F227     F      0.648700000000     0.633000000000     0.684800000000     0          
O228     O      0.555350000000     0.852150000000     0.587800000000     0          
O229     O      0.602460000000     0.916380000000     0.664600000000     0          
C230     C      0.703700000000     0.745800000000     0.732900000000     0          
C231     C      0.665800000000     0.733100000000     0.669100000000     0          
C232     C      0.628600000000     0.772400000000     0.639000000000     0          
H233     H      0.602500000000     0.763400000000     0.594500000000     0          
C234     C      0.630200000000     0.824200000000     0.674100000000     0          
C235     C      0.665600000000     0.837300000000     0.741300000000     0          
H236     H      0.664300000000     0.872800000000     0.767800000000     0          
C237     C      0.703500000000     0.798500000000     0.771000000000     0          
C238     C      0.592600000000     0.867400000000     0.638800000000     0          
C239     C      0.658400000000     0.677500000000     0.624400000000     0          
H240     H      0.734170000000     0.809140000000     0.825670000000     0          
F241     F      0.294000000000     0.344400000000     0.580300000000     0          
F242     F      0.381000000000     0.329800000000     0.557600000000     0          
F243     F      0.351300000000     0.367000000000     0.684800000000     0          
O244     O      0.444650000000     0.147850000000     0.587800000000     0          
O245     O      0.397540000000     0.083620000000     0.664600000000     0          
C246     C      0.296300000000     0.254200000000     0.732900000000     0          
C247     C      0.334200000000     0.266900000000     0.669100000000     0          
C248     C      0.371400000000     0.227600000000     0.639000000000     0          
H249     H      0.397500000000     0.236600000000     0.594500000000     0          
C250     C      0.369800000000     0.175800000000     0.674100000000     0          
C251     C      0.334400000000     0.162700000000     0.741300000000     0          
H252     H      0.335700000000     0.127200000000     0.767800000000     0          
C253     C      0.296500000000     0.201500000000     0.771000000000     0          
C254     C      0.407400000000     0.132600000000     0.638800000000     0          
C255     C      0.341600000000     0.322500000000     0.624400000000     0          
H256     H      0.265830000000     0.190860000000     0.825670000000     0          
Zr257    Zr     0.100680000000     0.500000000000     0.000000000000     0          
Zr258    Zr     0.899320000000     0.500000000000     0.000000000000     0          
Zr259    Zr     0.500000000000     0.100680000000     0.500000000000     0          
Zr260    Zr     0.500000000000     0.899320000000     0.500000000000     0          
Zr261    Zr     0.000000000000     0.427360000000     0.117380000000     0          
Zr262    Zr     0.000000000000     0.572640000000     0.117380000000     0          
Zr263    Zr     0.572640000000     0.000000000000     0.617380000000     0          
Zr264    Zr     0.427360000000     0.000000000000     0.617380000000     0          
Zr265    Zr     0.000000000000     0.427360000000     0.882620000000     0          
Zr266    Zr     0.000000000000     0.572640000000     0.882620000000     0          
Zr267    Zr     0.427360000000     0.000000000000     0.382620000000     0          
Zr268    Zr     0.572640000000     0.000000000000     0.382620000000     0          
O269     O      0.049500000000     0.500000000000     0.118500000000     0          
O270     O      0.950500000000     0.500000000000     0.118500000000     0          
O271     O      0.500000000000     0.049500000000     0.618500000000     0          
O272     O      0.500000000000     0.950500000000     0.618500000000     0          
O273     O      0.950500000000     0.500000000000     0.881500000000     0          
O274     O      0.049500000000     0.500000000000     0.881500000000     0          
O275     O      0.500000000000     0.049500000000     0.381500000000     0          
O276     O      0.500000000000     0.950500000000     0.381500000000     0          
O277     O      0.049700000000     0.426600000000     0.000000000000     0          
O278     O      0.950300000000     0.573400000000     0.000000000000     0          
O279     O      0.573400000000     0.049700000000     0.500000000000     0          
O280     O      0.426600000000     0.950300000000     0.500000000000     0          
O281     O      0.950300000000     0.426600000000     0.000000000000     0          
O282     O      0.049700000000     0.573400000000     0.000000000000     0          
O283     O      0.426600000000     0.049700000000     0.500000000000     0          
O284     O      0.573400000000     0.950300000000     0.500000000000     0          


