data_OQUGAK

_audit_creation_method RASPA-1.0
_audit_creation_date 2020-12-14
_audit_author_name 'Rocio Bueno-Perez'

_cell_length_a    22.8727
_cell_length_b    22.8727
_cell_length_c    19.059
_cell_angle_alpha 90
_cell_angle_beta  90
_cell_angle_gamma 90
_cell_volume      9970.91

_symmetry_cell_setting          triclinic
_symmetry_space_group_name_Hall 'P 1'
_symmetry_space_group_name_H-M  'P 1'
_symmetry_Int_Tables_number     1

_symmetry_equiv_pos_as_xyz 'x,y,z'

loop_
_atom_site_label
_atom_site_type_symbol
_atom_site_fract_x
_atom_site_fract_y
_atom_site_fract_z
_atom_site_charge
O1       O      0.158100000000     0.441200000000     0.069700000000     0          
O2       O      0.088000000000     0.393600000000     0.127500000000     0          
C3       C      0.266100000000     0.308500000000     0.233300000000     0          
C4       C      0.284100000000     0.342700000000     0.176700000000     0          
C5       C      0.243100000000     0.374100000000     0.138100000000     0          
C6       C      0.184900000000     0.372200000000     0.155200000000     0          
C7       C      0.165700000000     0.338400000000     0.211000000000     0          
C8       C      0.206700000000     0.306700000000     0.249900000000     0          
C9       C      0.140700000000     0.404800000000     0.114400000000     0          
F10      F      0.212100000000     0.283000000000     0.370500000000     0          
F11      F      0.128400000000     0.278100000000     0.322700000000     0          
F12      F      0.192300000000     0.213300000000     0.300500000000     0          
C13      C      0.185700000000     0.270500000000     0.310300000000     0          
F14      F      0.631100000000     0.703700000000     0.132000000000     0          
F15      F      0.617500000000     0.638900000000     0.209000000000     0          
F16      F      0.642000000000     0.614800000000     0.106700000000     0          
O17      O      0.841900000000     0.558800000000     0.069700000000     0          
O18      O      0.912000000000     0.606400000000     0.127500000000     0          
C19      C      0.733900000000     0.691500000000     0.233300000000     0          
C20      C      0.715900000000     0.657300000000     0.176700000000     0          
C21      C      0.756900000000     0.625900000000     0.138100000000     0          
H22      H      0.742250000000     0.598160000000     0.091620000000     0          
C23      C      0.815100000000     0.627800000000     0.155200000000     0          
C24      C      0.834300000000     0.661600000000     0.211000000000     0          
C25      C      0.793300000000     0.693300000000     0.249900000000     0          
C26      C      0.652800000000     0.654100000000     0.157000000000     0          
C27      C      0.859300000000     0.595200000000     0.114400000000     0          
F28      F      0.703700000000     0.368900000000     0.632000000000     0          
F29      F      0.638900000000     0.382500000000     0.709000000000     0          
F30      F      0.614800000000     0.358000000000     0.606700000000     0          
O31      O      0.558800000000     0.158100000000     0.569700000000     0          
O32      O      0.606400000000     0.088000000000     0.627500000000     0          
C33      C      0.691500000000     0.266100000000     0.733300000000     0          
C34      C      0.657300000000     0.284100000000     0.676700000000     0          
C35      C      0.625900000000     0.243100000000     0.638100000000     0          
H36      H      0.598160000000     0.257750000000     0.591620000000     0          
C37      C      0.627800000000     0.184900000000     0.655200000000     0          
C38      C      0.661600000000     0.165700000000     0.711000000000     0          
C39      C      0.693300000000     0.206700000000     0.749900000000     0          
C40      C      0.654100000000     0.347200000000     0.657000000000     0          
C41      C      0.595200000000     0.140700000000     0.614400000000     0          
O42      O      0.441200000000     0.841900000000     0.569700000000     0          
O43      O      0.393600000000     0.912000000000     0.627500000000     0          
C44      C      0.308500000000     0.733900000000     0.733300000000     0          
C45      C      0.342700000000     0.715900000000     0.676700000000     0          
C46      C      0.374100000000     0.756900000000     0.638100000000     0          
H47      H      0.401840000000     0.742250000000     0.591620000000     0          
C48      C      0.372200000000     0.815100000000     0.655200000000     0          
C49      C      0.338400000000     0.834300000000     0.711000000000     0          
C50      C      0.306700000000     0.793300000000     0.749900000000     0          
C51      C      0.404800000000     0.859300000000     0.614400000000     0          
F52      F      0.283000000000     0.787900000000     0.870500000000     0          
F53      F      0.278100000000     0.871600000000     0.822700000000     0          
F54      F      0.213300000000     0.807700000000     0.800500000000     0          
C55      C      0.270500000000     0.814300000000     0.810300000000     0          
O56      O      0.841900000000     0.441200000000     0.930300000000     0          
O57      O      0.912000000000     0.393600000000     0.872500000000     0          
C58      C      0.733900000000     0.308500000000     0.766700000000     0          
C59      C      0.715900000000     0.342700000000     0.823300000000     0          
C60      C      0.756900000000     0.374100000000     0.861900000000     0          
H61      H      0.742250000000     0.401840000000     0.908380000000     0          
C62      C      0.815100000000     0.372200000000     0.844800000000     0          
C63      C      0.834300000000     0.338400000000     0.789000000000     0          
C64      C      0.793300000000     0.306700000000     0.750100000000     0          
C65      C      0.859300000000     0.404800000000     0.885600000000     0          
F66      F      0.787900000000     0.283000000000     0.629500000000     0          
F67      F      0.871600000000     0.278100000000     0.677300000000     0          
F68      F      0.807700000000     0.213300000000     0.699500000000     0          
C69      C      0.814300000000     0.270500000000     0.689700000000     0          
F70      F      0.368900000000     0.703700000000     0.868000000000     0          
F71      F      0.382500000000     0.638900000000     0.791000000000     0          
F72      F      0.358000000000     0.614800000000     0.893300000000     0          
O73      O      0.158100000000     0.558800000000     0.930300000000     0          
O74      O      0.088000000000     0.606400000000     0.872500000000     0          
N75      N      0.044000000000     0.715800000000     0.529200000000     0          
H76      H      0.072600000000     0.710630000000     0.482560000000     0          
C77      C      0.266100000000     0.691500000000     0.766700000000     0          
C78      C      0.284100000000     0.657300000000     0.823300000000     0          
C79      C      0.243100000000     0.625900000000     0.861900000000     0          
H80      H      0.257750000000     0.598160000000     0.908380000000     0          
C81      C      0.184900000000     0.627800000000     0.844800000000     0          
C82      C      0.165700000000     0.661600000000     0.789000000000     0          
C83      C      0.206700000000     0.693300000000     0.750100000000     0          
C84      C      0.347200000000     0.654100000000     0.843000000000     0          
C85      C      0.140700000000     0.595200000000     0.885600000000     0          
C86      C      0.035800000000     0.600100000000     0.471600000000     0          
C87      C      0.027400000000     0.612500000000     0.548000000000     0          
C88      C      0.034600000000     0.668200000000     0.574600000000     0          
C89      C      0.025400000000     0.678600000000     0.645800000000     0          
H90      H      0.031280000000     0.724520000000     0.667950000000     0          
C91      C      0.009100000000     0.633300000000     0.689900000000     0          
C92      C      0.011600000000     0.566800000000     0.592500000000     0          
H93      H      0.008240000000     0.520340000000     0.571210000000     0          
O94      O      0.089700000000     0.521200000000     0.236500000000     0          
H95      H      0.145510000000     0.499560000000     0.485780000000     0          
H96      H      0.119200000000     0.556010000000     0.553520000000     0          
C97      C      0.078000000000     0.560400000000     0.450100000000     0          
C98      C      0.081800000000     0.544000000000     0.380200000000     0          
H99      H      0.116360000000     0.511120000000     0.362890000000     0          
C100     C      0.043500000000     0.567600000000     0.331100000000     0          
H101     H      0.964750000000     0.621000000000     0.315290000000     0          
H102     H      0.969740000000     0.662780000000     0.437480000000     0          
C103     C      0.044600000000     0.547600000000     0.255700000000     0          
O104     O      0.441200000000     0.158100000000     0.430300000000     0          
O105     O      0.393600000000     0.088000000000     0.372500000000     0          
C106     C      0.308500000000     0.266100000000     0.266700000000     0          
C107     C      0.342700000000     0.284100000000     0.323300000000     0          
C108     C      0.374100000000     0.243100000000     0.361900000000     0          
H109     H      0.401840000000     0.257750000000     0.408380000000     0          
C110     C      0.372200000000     0.184900000000     0.344800000000     0          
C111     C      0.338400000000     0.165700000000     0.289000000000     0          
C112     C      0.306700000000     0.206700000000     0.250100000000     0          
C113     C      0.404800000000     0.140700000000     0.385600000000     0          
F114     F      0.283000000000     0.212100000000     0.129500000000     0          
F115     F      0.278100000000     0.128400000000     0.177300000000     0          
F116     F      0.213300000000     0.192300000000     0.199500000000     0          
C117     C      0.270500000000     0.185700000000     0.189700000000     0          
O118     O      0.558800000000     0.841900000000     0.430300000000     0          
O119     O      0.606400000000     0.912000000000     0.372500000000     0          
C120     C      0.691500000000     0.733900000000     0.266700000000     0          
C121     C      0.657300000000     0.715900000000     0.323300000000     0          
C122     C      0.625900000000     0.756900000000     0.361900000000     0          
H123     H      0.598160000000     0.742250000000     0.408380000000     0          
C124     C      0.627800000000     0.815100000000     0.344800000000     0          
C125     C      0.661600000000     0.834300000000     0.289000000000     0          
C126     C      0.693300000000     0.793300000000     0.250100000000     0          
C127     C      0.595200000000     0.859300000000     0.385600000000     0          
F128     F      0.717000000000     0.787900000000     0.129500000000     0          
F129     F      0.721900000000     0.871600000000     0.177300000000     0          
F130     F      0.786700000000     0.807700000000     0.199500000000     0          
C131     C      0.729500000000     0.814300000000     0.189700000000     0          
O132     O      0.841900000000     0.558800000000     0.930300000000     0          
O133     O      0.912000000000     0.606400000000     0.872500000000     0          
C134     C      0.733900000000     0.691500000000     0.766700000000     0          
C135     C      0.715900000000     0.657300000000     0.823300000000     0          
C136     C      0.756900000000     0.625900000000     0.861900000000     0          
H137     H      0.742250000000     0.598160000000     0.908380000000     0          
C138     C      0.815100000000     0.627800000000     0.844800000000     0          
C139     C      0.834300000000     0.661600000000     0.789000000000     0          
C140     C      0.793300000000     0.693300000000     0.750100000000     0          
C141     C      0.859300000000     0.595200000000     0.885600000000     0          
H142     H      0.982970000000     0.541140000000     0.697540000000     0          
F143     F      0.787900000000     0.717000000000     0.629500000000     0          
F144     F      0.871600000000     0.721900000000     0.677300000000     0          
F145     F      0.807700000000     0.786700000000     0.699500000000     0          
C146     C      0.814300000000     0.729500000000     0.689700000000     0          
O147     O      0.158100000000     0.441200000000     0.930300000000     0          
C148     C      0.266100000000     0.308500000000     0.766700000000     0          
C149     C      0.284100000000     0.342700000000     0.823300000000     0          
C150     C      0.243100000000     0.374100000000     0.861900000000     0          
C151     C      0.184900000000     0.372200000000     0.844800000000     0          
C152     C      0.165700000000     0.338400000000     0.789000000000     0          
H153     H      0.117180000000     0.336780000000     0.775480000000     0          
C154     C      0.206700000000     0.306700000000     0.750100000000     0          
C155     C      0.140700000000     0.404800000000     0.885600000000     0          
F156     F      0.212100000000     0.283000000000     0.629500000000     0          
F157     F      0.128400000000     0.278100000000     0.677300000000     0          
F158     F      0.192300000000     0.213300000000     0.699500000000     0          
C159     C      0.185700000000     0.270500000000     0.689700000000     0          
O160     O      0.441200000000     0.841900000000     0.430300000000     0          
O161     O      0.393600000000     0.912000000000     0.372500000000     0          
N162     N      0.284200000000     0.956000000000     0.029200000000     0          
H163     H      0.289570000000     0.927970000000     0.982100000000     0          
C164     C      0.308500000000     0.733900000000     0.266700000000     0          
C165     C      0.342700000000     0.715900000000     0.323300000000     0          
C166     C      0.374100000000     0.756900000000     0.361900000000     0          
H167     H      0.401840000000     0.742250000000     0.408380000000     0          
C168     C      0.372200000000     0.815100000000     0.344800000000     0          
C169     C      0.338400000000     0.834300000000     0.289000000000     0          
C170     C      0.306700000000     0.793300000000     0.250100000000     0          
C171     C      0.404800000000     0.859300000000     0.385600000000     0          
C172     C      0.399900000000     0.964200000000     0.971600000000     0          
C173     C      0.387500000000     0.972600000000     0.048000000000     0          
C174     C      0.331800000000     0.965400000000     0.074600000000     0          
C175     C      0.321400000000     0.974600000000     0.145800000000     0          
H176     H      0.275480000000     0.968720000000     0.167950000000     0          
C177     C      0.366700000000     0.990900000000     0.189900000000     0          
C178     C      0.433200000000     0.988400000000     0.092500000000     0          
F179     F      0.283000000000     0.787900000000     0.129500000000     0          
F180     F      0.278100000000     0.871600000000     0.177300000000     0          
F181     F      0.213300000000     0.807700000000     0.199500000000     0          
O182     O      0.478800000000     0.910300000000     0.736500000000     0          
H183     H      0.475480000000     0.838020000000     0.984090000000     0          
C184     C      0.270500000000     0.814300000000     0.189700000000     0          
C185     C      0.439600000000     0.922000000000     0.950100000000     0          
C186     C      0.456000000000     0.918200000000     0.880200000000     0          
C187     C      0.432400000000     0.956500000000     0.831100000000     0          
C188     C      0.452400000000     0.955400000000     0.755700000000     0          
O189     O      0.558800000000     0.158100000000     0.430300000000     0          
O190     O      0.606400000000     0.088000000000     0.372500000000     0          
N191     N      0.715800000000     0.044000000000     0.029200000000     0          
H192     H      0.718220000000     0.020330000000     0.978440000000     0          
C193     C      0.691500000000     0.266100000000     0.266700000000     0          
C194     C      0.657300000000     0.284100000000     0.323300000000     0          
C195     C      0.625900000000     0.243100000000     0.361900000000     0          
H196     H      0.598160000000     0.257750000000     0.408380000000     0          
C197     C      0.627800000000     0.184900000000     0.344800000000     0          
C198     C      0.661600000000     0.165700000000     0.289000000000     0          
C199     C      0.693300000000     0.206700000000     0.250100000000     0          
C200     C      0.595200000000     0.140700000000     0.385600000000     0          
C201     C      0.600100000000     0.035800000000     0.971600000000     0          
C202     C      0.612500000000     0.027400000000     0.048000000000     0          
C203     C      0.668200000000     0.034600000000     0.074600000000     0          
C204     C      0.678600000000     0.025400000000     0.145800000000     0          
C205     C      0.633300000000     0.009100000000     0.189900000000     0          
C206     C      0.566800000000     0.011600000000     0.092500000000     0          
F207     F      0.717000000000     0.212100000000     0.129500000000     0          
F208     F      0.721900000000     0.128400000000     0.177300000000     0          
F209     F      0.786700000000     0.192300000000     0.199500000000     0          
O210     O      0.521200000000     0.089700000000     0.736500000000     0          
C211     C      0.729500000000     0.185700000000     0.189700000000     0          
C212     C      0.560400000000     0.078000000000     0.950100000000     0          
C213     C      0.544000000000     0.081800000000     0.880200000000     0          
C214     C      0.567600000000     0.043500000000     0.831100000000     0          
C215     C      0.547600000000     0.044600000000     0.755700000000     0          
F216     F      0.368900000000     0.703700000000     0.132000000000     0          
F217     F      0.382500000000     0.638900000000     0.209000000000     0          
F218     F      0.358000000000     0.614800000000     0.106700000000     0          
O219     O      0.158100000000     0.558800000000     0.069700000000     0          
O220     O      0.088000000000     0.606400000000     0.127500000000     0          
C221     C      0.266100000000     0.691500000000     0.233300000000     0          
C222     C      0.284100000000     0.657300000000     0.176700000000     0          
C223     C      0.243100000000     0.625900000000     0.138100000000     0          
H224     H      0.257750000000     0.598160000000     0.091620000000     0          
C225     C      0.184900000000     0.627800000000     0.155200000000     0          
C226     C      0.165700000000     0.661600000000     0.211000000000     0          
C227     C      0.206700000000     0.693300000000     0.249900000000     0          
C228     C      0.347200000000     0.654100000000     0.157000000000     0          
C229     C      0.140700000000     0.595200000000     0.114400000000     0          
F230     F      0.631100000000     0.296300000000     0.132000000000     0          
F231     F      0.617500000000     0.361100000000     0.209000000000     0          
F232     F      0.642000000000     0.385200000000     0.106700000000     0          
O233     O      0.841900000000     0.441200000000     0.069700000000     0          
O234     O      0.912000000000     0.393600000000     0.127500000000     0          
C235     C      0.733900000000     0.308500000000     0.233300000000     0          
C236     C      0.715900000000     0.342700000000     0.176700000000     0          
C237     C      0.756900000000     0.374100000000     0.138100000000     0          
C238     C      0.815100000000     0.372200000000     0.155200000000     0          
C239     C      0.834300000000     0.338400000000     0.211000000000     0          
C240     C      0.793300000000     0.306700000000     0.249900000000     0          
C241     C      0.652800000000     0.345900000000     0.157000000000     0          
C242     C      0.859300000000     0.404800000000     0.114400000000     0          
O243     O      0.558800000000     0.841900000000     0.569700000000     0          
O244     O      0.606400000000     0.912000000000     0.627500000000     0          
C245     C      0.691500000000     0.733900000000     0.733300000000     0          
C246     C      0.657300000000     0.715900000000     0.676700000000     0          
C247     C      0.625900000000     0.756900000000     0.638100000000     0          
H248     H      0.598160000000     0.742250000000     0.591620000000     0          
C249     C      0.627800000000     0.815100000000     0.655200000000     0          
C250     C      0.661600000000     0.834300000000     0.711000000000     0          
H251     H      0.663220000000     0.882820000000     0.724520000000     0          
C252     C      0.693300000000     0.793300000000     0.749900000000     0          
C253     C      0.595200000000     0.859300000000     0.614400000000     0          
F254     F      0.717000000000     0.787900000000     0.870500000000     0          
F255     F      0.721900000000     0.871600000000     0.822700000000     0          
F256     F      0.786700000000     0.807700000000     0.800500000000     0          
C257     C      0.729500000000     0.814300000000     0.810300000000     0          
F258     F      0.296300000000     0.368900000000     0.632000000000     0          
F259     F      0.361100000000     0.382500000000     0.709000000000     0          
F260     F      0.385200000000     0.358000000000     0.606700000000     0          
O261     O      0.441200000000     0.158100000000     0.569700000000     0          
O262     O      0.393600000000     0.088000000000     0.627500000000     0          
C263     C      0.308500000000     0.266100000000     0.733300000000     0          
C264     C      0.342700000000     0.284100000000     0.676700000000     0          
C265     C      0.374100000000     0.243100000000     0.638100000000     0          
H266     H      0.401840000000     0.257750000000     0.591620000000     0          
C267     C      0.372200000000     0.184900000000     0.655200000000     0          
C268     C      0.338400000000     0.165700000000     0.711000000000     0          
C269     C      0.306700000000     0.206700000000     0.749900000000     0          
C270     C      0.345900000000     0.347200000000     0.657000000000     0          
C271     C      0.404800000000     0.140700000000     0.614400000000     0          
Zr272    Zr     0.107410000000     0.500000000000     0.000000000000     0          
Zr273    Zr     0.892590000000     0.500000000000     0.000000000000     0          
Zr274    Zr     0.500000000000     0.107410000000     0.500000000000     0          
Zr275    Zr     0.500000000000     0.892590000000     0.500000000000     0          
Zr276    Zr     0.000000000000     0.423350000000     0.092330000000     0          
Zr277    Zr     0.000000000000     0.576650000000     0.092330000000     0          
Zr278    Zr     0.576650000000     0.000000000000     0.592330000000     0          
Zr279    Zr     0.423350000000     0.000000000000     0.592330000000     0          
Zr280    Zr     0.000000000000     0.423350000000     0.907670000000     0          
O281     O      0.000000000000     0.402000000000     0.803100000000     0          
Zr282    Zr     0.000000000000     0.576650000000     0.907670000000     0          
O283     O      0.000000000000     0.598000000000     0.803100000000     0          
O284     O      0.000000000000     0.694200000000     0.792900000000     0          
C285     C      0.000000000000     0.577700000000     0.662400000000     0          
C286     C      0.000000000000     0.644000000000     0.767200000000     0          
C287     C      0.000000000000     0.605900000000     0.353500000000     0          
C288     C      0.000000000000     0.625300000000     0.422100000000     0          
O289     O      0.000000000000     0.559000000000     0.218200000000     0          
Zr290    Zr     0.423350000000     0.000000000000     0.407670000000     0          
O291     O      0.402000000000     0.000000000000     0.303100000000     0          
O292     O      0.305800000000     0.000000000000     0.292900000000     0          
C293     C      0.422300000000     0.000000000000     0.162400000000     0          
C294     C      0.356000000000     0.000000000000     0.267200000000     0          
C295     C      0.394100000000     0.000000000000     0.853500000000     0          
C296     C      0.374700000000     0.000000000000     0.922100000000     0          
O297     O      0.441000000000     0.000000000000     0.718200000000     0          
Zr298    Zr     0.576650000000     0.000000000000     0.407670000000     0          
O299     O      0.598000000000     0.000000000000     0.303100000000     0          
O300     O      0.694200000000     0.000000000000     0.292900000000     0          
C301     C      0.577700000000     0.000000000000     0.162400000000     0          
C302     C      0.644000000000     0.000000000000     0.267200000000     0          
C303     C      0.605900000000     0.000000000000     0.853500000000     0          
C304     C      0.625300000000     0.000000000000     0.922100000000     0          
O305     O      0.559000000000     0.000000000000     0.718200000000     0          
O306     O      0.054300000000     0.580800000000     0.000000000000     0          
O307     O      0.945700000000     0.419200000000     0.000000000000     0          
O308     O      0.419200000000     0.054300000000     0.500000000000     0          
O309     O      0.580800000000     0.945700000000     0.500000000000     0          
O310     O      0.945700000000     0.580800000000     0.000000000000     0          
O311     O      0.054300000000     0.419200000000     0.000000000000     0          
O312     O      0.580800000000     0.054300000000     0.500000000000     0          
O313     O      0.419200000000     0.945700000000     0.500000000000     0          
O314     O      0.052900000000     0.500000000000     0.091300000000     0          
O315     O      0.947100000000     0.500000000000     0.091300000000     0          
O316     O      0.500000000000     0.052900000000     0.591300000000     0          
O317     O      0.500000000000     0.947100000000     0.591300000000     0          
O318     O      0.947100000000     0.500000000000     0.908700000000     0          
O319     O      0.052900000000     0.500000000000     0.908700000000     0          
O320     O      0.500000000000     0.052900000000     0.408700000000     0          
O321     O      0.500000000000     0.947100000000     0.408700000000     0          
N322     N      0.537000000000     0.117000000000     0.000000000000     0          
N323     N      0.463000000000     0.883000000000     0.000000000000     0          
N324     N      0.117000000000     0.537000000000     0.500000000000     0          
H325     H      0.022820000000     0.758520000000     0.540030000000     0          
O326     O      0.000000000000     0.305800000000     0.792900000000     0          
C327     C      0.000000000000     0.356000000000     0.767200000000     0          
N328     N      0.883000000000     0.463000000000     0.500000000000     0          
C329     C      0.964200000000     0.399900000000     0.471600000000     0          
C330     C      0.972600000000     0.387500000000     0.548000000000     0          
C331     C      0.965400000000     0.331800000000     0.574600000000     0          
C332     C      0.974600000000     0.321400000000     0.645800000000     0          
C333     C      0.990900000000     0.366700000000     0.689900000000     0          
C334     C      0.988400000000     0.433200000000     0.592500000000     0          
O335     O      0.910300000000     0.478800000000     0.236500000000     0          
C336     C      0.922000000000     0.439600000000     0.450100000000     0          
C337     C      0.918200000000     0.456000000000     0.380200000000     0          
C338     C      0.956500000000     0.432400000000     0.331100000000     0          
C339     C      0.955400000000     0.452400000000     0.255700000000     0          
C340     C      0.000000000000     0.422300000000     0.662400000000     0          
C341     C      0.000000000000     0.394100000000     0.353500000000     0          
C342     C      0.000000000000     0.374700000000     0.422100000000     0          
O343     O      0.000000000000     0.441000000000     0.218200000000     0          
N344     N      0.956000000000     0.284200000000     0.529200000000     0          
H345     H      0.117180000000     0.336780000000     0.224520000000     0          
H346     H      0.882820000000     0.663220000000     0.224520000000     0          
H347     H      0.663220000000     0.117180000000     0.724520000000     0          
H348     H      0.882820000000     0.336780000000     0.775480000000     0          
H349     H      0.117180000000     0.663220000000     0.775480000000     0          
H350     H      0.336780000000     0.117180000000     0.275480000000     0          
H351     H      0.663220000000     0.882820000000     0.275480000000     0          
H352     H      0.882820000000     0.663220000000     0.775480000000     0          
H353     H      0.111780000000     0.371600000000     0.913630000000     0          
H354     H      0.111900000000     0.431060000000     0.848320000000     0          
H355     H      0.241290000000     0.976620000000     0.040490000000     0          
H356     H      0.336780000000     0.882820000000     0.275480000000     0          
H357     H      0.479660000000     0.991760000000     0.071210000000     0          
H358     H      0.488880000000     0.883640000000     0.862890000000     0          
H359     H      0.750920000000     0.075080000000     0.044150000000     0          
H360     H      0.663220000000     0.117180000000     0.275480000000     0          
H361     H      0.724520000000     0.031280000000     0.167950000000     0          
H362     H      0.520340000000     0.008240000000     0.071210000000     0          
H363     H      0.511120000000     0.116360000000     0.862890000000     0          
H364     H      0.117180000000     0.663220000000     0.224520000000     0          
H365     H      0.882820000000     0.336780000000     0.224520000000     0          
H366     H      0.336780000000     0.117180000000     0.724520000000     0          
H367     H      0.458860000000     0.017030000000     0.197540000000     0          
H368     H      0.379000000000     0.035250000000     0.815290000000     0          
H369     H      0.337220000000     0.030260000000     0.937480000000     0          
H370     H      0.541140000000     0.982970000000     0.197540000000     0          
H371     H      0.621000000000     0.964750000000     0.815290000000     0          
H372     H      0.662780000000     0.969740000000     0.937480000000     0          
H373     H      0.488910000000     0.121070000000     0.006100000000     0          
H374     H      0.566660000000     0.143650000000     0.033200000000     0          
H375     H      0.468950000000     0.897270000000     0.055210000000     0          
H376     H      0.835600000000     0.452980000000     0.496570000000     0          
H377     H      0.899690000000     0.491440000000     0.542730000000     0          
H378     H      0.991760000000     0.479660000000     0.571210000000     0          
H379     H      0.883600000000     0.488890000000     0.363010000000     0          
H380     H      0.035250000000     0.379000000000     0.315290000000     0          
H381     H      0.030260000000     0.337220000000     0.437480000000     0          
H382     H      0.993820000000     0.260860000000     0.505810000000     0          
H383     H      0.910760000000     0.270000000000     0.516780000000     0          
H384     H      0.968720000000     0.275480000000     0.667950000000     0          
H385     H      0.017030000000     0.458860000000     0.697540000000     0          
H386     H      0.257750000000     0.401840000000     0.908380000000     0          
H387     H      0.336780000000     0.882820000000     0.724520000000     0          
H388     H      0.257750000000     0.401840000000     0.091620000000     0          
H389     H      0.742250000000     0.401840000000     0.091620000000     0          
H390     H      0.332380000000     0.344920000000     0.162080000000     0          
H391     H      0.809140000000     0.720960000000     0.295880000000     0          
H392     H      0.720960000000     0.190860000000     0.795880000000     0          
H393     H      0.344920000000     0.667620000000     0.662080000000     0          
H394     H      0.667620000000     0.344920000000     0.837920000000     0          
H395     H      0.190860000000     0.720960000000     0.704120000000     0          
H396     H      0.344920000000     0.332380000000     0.337920000000     0          
H397     H      0.655080000000     0.667620000000     0.337920000000     0          
H398     H      0.667620000000     0.655080000000     0.837920000000     0          
H399     H      0.344920000000     0.667620000000     0.337920000000     0          
H400     H      0.655080000000     0.332380000000     0.337920000000     0          
H401     H      0.190860000000     0.720960000000     0.295880000000     0          
H402     H      0.809140000000     0.279040000000     0.295880000000     0          
H403     H      0.655080000000     0.667620000000     0.662080000000     0          
H404     H      0.279040000000     0.190860000000     0.795880000000     0          


