data_OQUGUE

_audit_creation_method RASPA-1.0
_audit_creation_date 2020-12-14
_audit_author_name 'Rocio Bueno-Perez'

_cell_length_a    22.8995
_cell_length_b    22.8995
_cell_length_c    19.0201
_cell_angle_alpha 90
_cell_angle_beta  90
_cell_angle_gamma 90
_cell_volume      9973.9

_symmetry_cell_setting          triclinic
_symmetry_space_group_name_Hall 'P 1'
_symmetry_space_group_name_H-M  'P 1'
_symmetry_Int_Tables_number     1

_symmetry_equiv_pos_as_xyz 'x,y,z'

loop_
_atom_site_label
_atom_site_type_symbol
_atom_site_fract_x
_atom_site_fract_y
_atom_site_fract_z
_atom_site_charge
O1       O      0.158100000000     0.441600000000     0.070000000000     0          
O2       O      0.086900000000     0.394400000000     0.130400000000     0          
C3       C      0.140000000000     0.404800000000     0.115200000000     0          
C4       C      0.184900000000     0.371900000000     0.156500000000     0          
C5       C      0.241900000000     0.376600000000     0.142400000000     0          
H6       H      0.255400000000     0.402300000000     0.106700000000     0          
C7       C      0.281600000000     0.342500000000     0.181700000000     0          
C8       C      0.263000000000     0.303500000000     0.232100000000     0          
C9       C      0.204600000000     0.307400000000     0.250300000000     0          
C10      C      0.165000000000     0.339000000000     0.210400000000     0          
H11      H      0.124500000000     0.337600000000     0.220800000000     0          
F12      F      0.173200000000     0.206400000000     0.297100000000     0          
F13      F      0.116100000000     0.281400000000     0.326600000000     0          
F14      F      0.203900000000     0.271300000000     0.378300000000     0          
C15      C      0.179400000000     0.270700000000     0.306400000000     0          
F16      F      0.642300000000     0.627000000000     0.089700000000     0          
F17      F      0.609100000000     0.636800000000     0.199600000000     0          
F18      F      0.631300000000     0.716300000000     0.135500000000     0          
O19      O      0.841900000000     0.558400000000     0.070000000000     0          
O20      O      0.913100000000     0.605600000000     0.130400000000     0          
C21      C      0.860000000000     0.595200000000     0.115200000000     0          
C22      C      0.815100000000     0.628100000000     0.156500000000     0          
C23      C      0.758100000000     0.623400000000     0.142400000000     0          
H24      H      0.744600000000     0.597700000000     0.106700000000     0          
C25      C      0.718400000000     0.657500000000     0.181700000000     0          
C26      C      0.737000000000     0.696500000000     0.232100000000     0          
C27      C      0.795400000000     0.692600000000     0.250300000000     0          
C28      C      0.835000000000     0.661000000000     0.210400000000     0          
H29      H      0.875500000000     0.662400000000     0.220800000000     0          
C30      C      0.657800000000     0.659000000000     0.156200000000     0          
F31      F      0.627000000000     0.357700000000     0.589700000000     0          
F32      F      0.636800000000     0.390900000000     0.699600000000     0          
F33      F      0.716300000000     0.368700000000     0.635500000000     0          
O34      O      0.558400000000     0.158100000000     0.570000000000     0          
O35      O      0.605600000000     0.086900000000     0.630400000000     0          
C36      C      0.595200000000     0.140000000000     0.615200000000     0          
C37      C      0.628100000000     0.184900000000     0.656500000000     0          
C38      C      0.623400000000     0.241900000000     0.642400000000     0          
H39      H      0.597700000000     0.255400000000     0.606700000000     0          
C40      C      0.657500000000     0.281600000000     0.681700000000     0          
C41      C      0.696500000000     0.263000000000     0.732100000000     0          
C42      C      0.692600000000     0.204600000000     0.750300000000     0          
C43      C      0.661000000000     0.165000000000     0.710400000000     0          
H44      H      0.662400000000     0.124500000000     0.720800000000     0          
C45      C      0.659000000000     0.342200000000     0.656200000000     0          
F46      F      0.373000000000     0.642300000000     0.589700000000     0          
F47      F      0.363200000000     0.609100000000     0.699600000000     0          
F48      F      0.283700000000     0.631300000000     0.635500000000     0          
O49      O      0.441600000000     0.841900000000     0.570000000000     0          
O50      O      0.394400000000     0.913100000000     0.630400000000     0          
C51      C      0.404800000000     0.860000000000     0.615200000000     0          
C52      C      0.371900000000     0.815100000000     0.656500000000     0          
C53      C      0.376600000000     0.758100000000     0.642400000000     0          
H54      H      0.402300000000     0.744600000000     0.606700000000     0          
C55      C      0.342500000000     0.718400000000     0.681700000000     0          
C56      C      0.303500000000     0.737000000000     0.732100000000     0          
C57      C      0.307400000000     0.795400000000     0.750300000000     0          
C58      C      0.339000000000     0.835000000000     0.710400000000     0          
H59      H      0.337600000000     0.875500000000     0.720800000000     0          
C60      C      0.341000000000     0.657800000000     0.656200000000     0          
O61      O      0.841900000000     0.441600000000     0.930000000000     0          
O62      O      0.913100000000     0.394400000000     0.869600000000     0          
C63      C      0.860000000000     0.404800000000     0.884800000000     0          
C64      C      0.815100000000     0.371900000000     0.843500000000     0          
C65      C      0.758100000000     0.376600000000     0.857600000000     0          
H66      H      0.744600000000     0.402300000000     0.893300000000     0          
C67      C      0.718400000000     0.342500000000     0.818300000000     0          
C68      C      0.737000000000     0.303500000000     0.767900000000     0          
C69      C      0.795400000000     0.307400000000     0.749700000000     0          
C70      C      0.835000000000     0.339000000000     0.789600000000     0          
H71      H      0.875500000000     0.337600000000     0.779200000000     0          
F72      F      0.826800000000     0.206400000000     0.702900000000     0          
F73      F      0.883900000000     0.281400000000     0.673400000000     0          
F74      F      0.796100000000     0.271300000000     0.621700000000     0          
C75      C      0.820600000000     0.270700000000     0.693600000000     0          
F76      F      0.357700000000     0.627000000000     0.910300000000     0          
F77      F      0.390900000000     0.636800000000     0.800400000000     0          
F78      F      0.368700000000     0.716300000000     0.864500000000     0          
O79      O      0.158100000000     0.558400000000     0.930000000000     0          
O80      O      0.086900000000     0.605600000000     0.869600000000     0          
C81      C      0.140000000000     0.595200000000     0.884800000000     0          
C82      C      0.184900000000     0.628100000000     0.843500000000     0          
C83      C      0.241900000000     0.623400000000     0.857600000000     0          
H84      H      0.255400000000     0.597700000000     0.893300000000     0          
C85      C      0.281600000000     0.657500000000     0.818300000000     0          
C86      C      0.263000000000     0.696500000000     0.767900000000     0          
C87      C      0.204600000000     0.692600000000     0.749700000000     0          
C88      C      0.165000000000     0.661000000000     0.789600000000     0          
H89      H      0.124500000000     0.662400000000     0.779200000000     0          
C90      C      0.342200000000     0.659000000000     0.843800000000     0          
O91      O      0.441600000000     0.158100000000     0.430000000000     0          
O92      O      0.394400000000     0.086900000000     0.369600000000     0          
C93      C      0.404800000000     0.140000000000     0.384800000000     0          
C94      C      0.371900000000     0.184900000000     0.343500000000     0          
C95      C      0.376600000000     0.241900000000     0.357600000000     0          
H96      H      0.402300000000     0.255400000000     0.393300000000     0          
C97      C      0.342500000000     0.281600000000     0.318300000000     0          
C98      C      0.303500000000     0.263000000000     0.267900000000     0          
C99      C      0.307400000000     0.204600000000     0.249700000000     0          
C100     C      0.339000000000     0.165000000000     0.289600000000     0          
H101     H      0.337600000000     0.124500000000     0.279200000000     0          
F102     F      0.206400000000     0.173200000000     0.202900000000     0          
F103     F      0.281400000000     0.116100000000     0.173400000000     0          
F104     F      0.271300000000     0.203900000000     0.121700000000     0          
C105     C      0.270700000000     0.179400000000     0.193600000000     0          
O106     O      0.558400000000     0.841900000000     0.430000000000     0          
O107     O      0.605600000000     0.913100000000     0.369600000000     0          
C108     C      0.595200000000     0.860000000000     0.384800000000     0          
C109     C      0.628100000000     0.815100000000     0.343500000000     0          
C110     C      0.623400000000     0.758100000000     0.357600000000     0          
H111     H      0.597700000000     0.744600000000     0.393300000000     0          
C112     C      0.657500000000     0.718400000000     0.318300000000     0          
C113     C      0.696500000000     0.737000000000     0.267900000000     0          
C114     C      0.692600000000     0.795400000000     0.249700000000     0          
C115     C      0.661000000000     0.835000000000     0.289600000000     0          
H116     H      0.662400000000     0.875500000000     0.279200000000     0          
F117     F      0.793600000000     0.826800000000     0.202900000000     0          
F118     F      0.718600000000     0.883900000000     0.173400000000     0          
F119     F      0.728700000000     0.796100000000     0.121700000000     0          
C120     C      0.729300000000     0.820600000000     0.193600000000     0          
O121     O      0.841900000000     0.558400000000     0.930000000000     0          
O122     O      0.913100000000     0.605600000000     0.869600000000     0          
C123     C      0.860000000000     0.595200000000     0.884800000000     0          
C124     C      0.815100000000     0.628100000000     0.843500000000     0          
C125     C      0.758100000000     0.623400000000     0.857600000000     0          
H126     H      0.744600000000     0.597700000000     0.893300000000     0          
C127     C      0.718400000000     0.657500000000     0.818300000000     0          
C128     C      0.737000000000     0.696500000000     0.767900000000     0          
C129     C      0.795400000000     0.692600000000     0.749700000000     0          
C130     C      0.835000000000     0.661000000000     0.789600000000     0          
H131     H      0.875500000000     0.662400000000     0.779200000000     0          
F132     F      0.826800000000     0.793600000000     0.702900000000     0          
F133     F      0.883900000000     0.718600000000     0.673400000000     0          
F134     F      0.796100000000     0.728700000000     0.621700000000     0          
C135     C      0.820600000000     0.729300000000     0.693600000000     0          
O136     O      0.158100000000     0.441600000000     0.930000000000     0          
O137     O      0.086900000000     0.394400000000     0.869600000000     0          
C138     C      0.140000000000     0.404800000000     0.884800000000     0          
C139     C      0.184900000000     0.371900000000     0.843500000000     0          
C140     C      0.241900000000     0.376600000000     0.857600000000     0          
H141     H      0.255400000000     0.402300000000     0.893300000000     0          
C142     C      0.281600000000     0.342500000000     0.818300000000     0          
C143     C      0.263000000000     0.303500000000     0.767900000000     0          
C144     C      0.204600000000     0.307400000000     0.749700000000     0          
C145     C      0.165000000000     0.339000000000     0.789600000000     0          
H146     H      0.124500000000     0.337600000000     0.779200000000     0          
F147     F      0.173200000000     0.206400000000     0.702900000000     0          
F148     F      0.116100000000     0.281400000000     0.673400000000     0          
F149     F      0.203900000000     0.271300000000     0.621700000000     0          
C150     C      0.179400000000     0.270700000000     0.693600000000     0          
O151     O      0.441600000000     0.841900000000     0.430000000000     0          
O152     O      0.394400000000     0.913100000000     0.369600000000     0          
C153     C      0.404800000000     0.860000000000     0.384800000000     0          
C154     C      0.371900000000     0.815100000000     0.343500000000     0          
C155     C      0.376600000000     0.758100000000     0.357600000000     0          
H156     H      0.402300000000     0.744600000000     0.393300000000     0          
C157     C      0.342500000000     0.718400000000     0.318300000000     0          
C158     C      0.303500000000     0.737000000000     0.267900000000     0          
C159     C      0.307400000000     0.795400000000     0.249700000000     0          
C160     C      0.339000000000     0.835000000000     0.289600000000     0          
H161     H      0.337600000000     0.875500000000     0.279200000000     0          
F162     F      0.206400000000     0.826800000000     0.202900000000     0          
F163     F      0.281400000000     0.883900000000     0.173400000000     0          
F164     F      0.271300000000     0.796100000000     0.121700000000     0          
C165     C      0.270700000000     0.820600000000     0.193600000000     0          
O166     O      0.558400000000     0.158100000000     0.430000000000     0          
O167     O      0.605600000000     0.086900000000     0.369600000000     0          
C168     C      0.595200000000     0.140000000000     0.384800000000     0          
C169     C      0.628100000000     0.184900000000     0.343500000000     0          
C170     C      0.623400000000     0.241900000000     0.357600000000     0          
H171     H      0.597700000000     0.255400000000     0.393300000000     0          
C172     C      0.657500000000     0.281600000000     0.318300000000     0          
C173     C      0.696500000000     0.263000000000     0.267900000000     0          
C174     C      0.692600000000     0.204600000000     0.249700000000     0          
C175     C      0.661000000000     0.165000000000     0.289600000000     0          
H176     H      0.662400000000     0.124500000000     0.279200000000     0          
F177     F      0.793600000000     0.173200000000     0.202900000000     0          
F178     F      0.718600000000     0.116100000000     0.173400000000     0          
F179     F      0.728700000000     0.203900000000     0.121700000000     0          
C180     C      0.729300000000     0.179400000000     0.193600000000     0          
O181     O      0.158100000000     0.558400000000     0.070000000000     0          
O182     O      0.086900000000     0.605600000000     0.130400000000     0          
C183     C      0.140000000000     0.595200000000     0.115200000000     0          
C184     C      0.184900000000     0.628100000000     0.156500000000     0          
C185     C      0.241900000000     0.623400000000     0.142400000000     0          
H186     H      0.255400000000     0.597700000000     0.106700000000     0          
C187     C      0.281600000000     0.657500000000     0.181700000000     0          
C188     C      0.263000000000     0.696500000000     0.232100000000     0          
C189     C      0.204600000000     0.692600000000     0.250300000000     0          
C190     C      0.165000000000     0.661000000000     0.210400000000     0          
H191     H      0.124500000000     0.662400000000     0.220800000000     0          
F192     F      0.173200000000     0.793600000000     0.297100000000     0          
F193     F      0.116100000000     0.718600000000     0.326600000000     0          
F194     F      0.203900000000     0.728700000000     0.378300000000     0          
C195     C      0.179400000000     0.729300000000     0.306400000000     0          
O196     O      0.841900000000     0.441600000000     0.070000000000     0          
O197     O      0.913100000000     0.394400000000     0.130400000000     0          
C198     C      0.860000000000     0.404800000000     0.115200000000     0          
C199     C      0.815100000000     0.371900000000     0.156500000000     0          
C200     C      0.758100000000     0.376600000000     0.142400000000     0          
H201     H      0.744600000000     0.402300000000     0.106700000000     0          
C202     C      0.718400000000     0.342500000000     0.181700000000     0          
C203     C      0.737000000000     0.303500000000     0.232100000000     0          
C204     C      0.795400000000     0.307400000000     0.250300000000     0          
C205     C      0.835000000000     0.339000000000     0.210400000000     0          
H206     H      0.875500000000     0.337600000000     0.220800000000     0          
F207     F      0.826800000000     0.206400000000     0.297100000000     0          
F208     F      0.883900000000     0.281400000000     0.326600000000     0          
F209     F      0.796100000000     0.271300000000     0.378300000000     0          
C210     C      0.820600000000     0.270700000000     0.306400000000     0          
F211     F      0.627000000000     0.642300000000     0.589700000000     0          
F212     F      0.636800000000     0.609100000000     0.699600000000     0          
F213     F      0.716300000000     0.631300000000     0.635500000000     0          
O214     O      0.558400000000     0.841900000000     0.570000000000     0          
O215     O      0.605600000000     0.913100000000     0.630400000000     0          
C216     C      0.595200000000     0.860000000000     0.615200000000     0          
C217     C      0.628100000000     0.815100000000     0.656500000000     0          
C218     C      0.623400000000     0.758100000000     0.642400000000     0          
H219     H      0.597700000000     0.744600000000     0.606700000000     0          
C220     C      0.657500000000     0.718400000000     0.681700000000     0          
C221     C      0.696500000000     0.737000000000     0.732100000000     0          
C222     C      0.692600000000     0.795400000000     0.750300000000     0          
C223     C      0.661000000000     0.835000000000     0.710400000000     0          
H224     H      0.662400000000     0.875500000000     0.720800000000     0          
C225     C      0.659000000000     0.657800000000     0.656200000000     0          
F226     F      0.373000000000     0.357700000000     0.589700000000     0          
F227     F      0.363200000000     0.390900000000     0.699600000000     0          
F228     F      0.283700000000     0.368700000000     0.635500000000     0          
O229     O      0.441600000000     0.158100000000     0.570000000000     0          
O230     O      0.394400000000     0.086900000000     0.630400000000     0          
C231     C      0.404800000000     0.140000000000     0.615200000000     0          
C232     C      0.371900000000     0.184900000000     0.656500000000     0          
C233     C      0.376600000000     0.241900000000     0.642400000000     0          
H234     H      0.402300000000     0.255400000000     0.606700000000     0          
C235     C      0.342500000000     0.281600000000     0.681700000000     0          
C236     C      0.303500000000     0.263000000000     0.732100000000     0          
C237     C      0.307400000000     0.204600000000     0.750300000000     0          
C238     C      0.339000000000     0.165000000000     0.710400000000     0          
H239     H      0.337600000000     0.124500000000     0.720800000000     0          
C240     C      0.341000000000     0.342200000000     0.656200000000     0          
Zr241    Zr     0.000000000000     0.423940000000     0.092830000000     0          
O242     O      0.000000000000     0.444100000000     0.207900000000     0          
O243     O      0.000000000000     0.396900000000     0.458800000000     0          
C244     C      0.000000000000     0.447390000000     0.349200000000     0          
H245     H      0.000000000000     0.411500000000     0.324200000000     0          
C246     C      0.000000000000     0.447440000000     0.422300000000     0          
H247     H      0.000000000000     0.362500000000     0.443500000000     0          
Zr248    Zr     0.000000000000     0.576060000000     0.092830000000     0          
O249     O      0.000000000000     0.555900000000     0.207900000000     0          
C250     C      0.000000000000     0.552610000000     0.349200000000     0          
H251     H      0.000000000000     0.588500000000     0.324200000000     0          
C252     C      0.000000000000     0.552560000000     0.422300000000     0          
H253     H      0.000000000000     0.588600000000     0.447000000000     0          
Zr254    Zr     0.576060000000     0.000000000000     0.592830000000     0          
O255     O      0.555900000000     0.000000000000     0.707900000000     0          
O256     O      0.603100000000     0.000000000000     0.958800000000     0          
C257     C      0.552610000000     0.000000000000     0.849200000000     0          
H258     H      0.588500000000     0.000000000000     0.824200000000     0          
C259     C      0.552560000000     0.000000000000     0.922300000000     0          
H260     H      0.637500000000     0.000000000000     0.943500000000     0          
Zr261    Zr     0.423940000000     0.000000000000     0.592830000000     0          
O262     O      0.444100000000     0.000000000000     0.707900000000     0          
C263     C      0.447390000000     0.000000000000     0.849200000000     0          
H264     H      0.411500000000     0.000000000000     0.824200000000     0          
C265     C      0.447440000000     0.000000000000     0.922300000000     0          
H266     H      0.411400000000     0.000000000000     0.947000000000     0          
Zr267    Zr     0.000000000000     0.423940000000     0.907170000000     0          
O268     O      0.000000000000     0.444100000000     0.792100000000     0          
C269     C      0.000000000000     0.447390000000     0.650800000000     0          
H270     H      0.000000000000     0.411500000000     0.675800000000     0          
C271     C      0.000000000000     0.447440000000     0.577700000000     0          
H272     H      0.000000000000     0.411400000000     0.553000000000     0          
Zr273    Zr     0.000000000000     0.576060000000     0.907170000000     0          
O274     O      0.000000000000     0.555900000000     0.792100000000     0          
O275     O      0.000000000000     0.603100000000     0.541200000000     0          
C276     C      0.000000000000     0.552610000000     0.650800000000     0          
H277     H      0.000000000000     0.588500000000     0.675800000000     0          
C278     C      0.000000000000     0.552560000000     0.577700000000     0          
H279     H      0.000000000000     0.637500000000     0.556500000000     0          
Zr280    Zr     0.423940000000     0.000000000000     0.407170000000     0          
O281     O      0.444100000000     0.000000000000     0.292100000000     0          
O282     O      0.396900000000     0.000000000000     0.041200000000     0          
C283     C      0.447390000000     0.000000000000     0.150800000000     0          
H284     H      0.411500000000     0.000000000000     0.175800000000     0          
C285     C      0.447440000000     0.000000000000     0.077700000000     0          
H286     H      0.362500000000     0.000000000000     0.056500000000     0          
Zr287    Zr     0.576060000000     0.000000000000     0.407170000000     0          
O288     O      0.555900000000     0.000000000000     0.292100000000     0          
C289     C      0.552610000000     0.000000000000     0.150800000000     0          
H290     H      0.588500000000     0.000000000000     0.175800000000     0          
C291     C      0.552560000000     0.000000000000     0.077700000000     0          
H292     H      0.588600000000     0.000000000000     0.053000000000     0          
Zr293    Zr     0.107880000000     0.500000000000     0.000000000000     0          
Zr294    Zr     0.892120000000     0.500000000000     0.000000000000     0          
Zr295    Zr     0.500000000000     0.107880000000     0.500000000000     0          
Zr296    Zr     0.500000000000     0.892120000000     0.500000000000     0          
O297     O      0.054100000000     0.421200000000     0.000000000000     0          
O298     O      0.945900000000     0.578800000000     0.000000000000     0          
O299     O      0.578800000000     0.054100000000     0.500000000000     0          
O300     O      0.421200000000     0.945900000000     0.500000000000     0          
O301     O      0.945900000000     0.421200000000     0.000000000000     0          
O302     O      0.054100000000     0.578800000000     0.000000000000     0          
O303     O      0.421200000000     0.054100000000     0.500000000000     0          
O304     O      0.578800000000     0.945900000000     0.500000000000     0          
O305     O      0.948300000000     0.500000000000     0.090500000000     0          
O306     O      0.051700000000     0.500000000000     0.090500000000     0          
O307     O      0.500000000000     0.948300000000     0.590500000000     0          
O308     O      0.500000000000     0.051700000000     0.590500000000     0          
O309     O      0.051700000000     0.500000000000     0.909500000000     0          
O310     O      0.948300000000     0.500000000000     0.909500000000     0          
O311     O      0.500000000000     0.948300000000     0.409500000000     0          
O312     O      0.500000000000     0.051700000000     0.409500000000     0          
C313     C      0.000000000000     0.500000000000     0.233000000000     0          
C314     C      0.000000000000     0.500000000000     0.312600000000     0          
C315     C      0.000000000000     0.500000000000     0.459900000000     0          
C316     C      0.500000000000     0.000000000000     0.733000000000     0          
C317     C      0.500000000000     0.000000000000     0.812600000000     0          
C318     C      0.500000000000     0.000000000000     0.959900000000     0          
C319     C      0.000000000000     0.500000000000     0.767000000000     0          
C320     C      0.000000000000     0.500000000000     0.687400000000     0          
C321     C      0.000000000000     0.500000000000     0.540100000000     0          
C322     C      0.500000000000     0.000000000000     0.267000000000     0          
C323     C      0.500000000000     0.000000000000     0.187400000000     0          
C324     C      0.500000000000     0.000000000000     0.040100000000     0          
H325     H      0.715770000000     0.187830000000     0.799360000000     0          
H326     H      0.284230000000     0.812170000000     0.799360000000     0          
H327     H      0.669450000000     0.346830000000     0.827900000000     0          
H328     H      0.187830000000     0.715770000000     0.700640000000     0          
H329     H      0.669450000000     0.653170000000     0.827900000000     0          
H330     H      0.330550000000     0.346830000000     0.827900000000     0          
H331     H      0.715770000000     0.812170000000     0.799360000000     0          
H332     H      0.284230000000     0.187830000000     0.799360000000     0          
H333     H      0.330550000000     0.346830000000     0.172100000000     0          
H334     H      0.812170000000     0.715770000000     0.299360000000     0          
H335     H      0.346830000000     0.330550000000     0.327900000000     0          
H336     H      0.653170000000     0.669450000000     0.327900000000     0          
H337     H      0.346830000000     0.669450000000     0.327900000000     0          
H338     H      0.653170000000     0.330550000000     0.327900000000     0          
H339     H      0.330550000000     0.653170000000     0.172100000000     0          
H340     H      0.669450000000     0.346830000000     0.172100000000     0          


