data_OWILAJ

_audit_creation_method RASPA-1.0
_audit_creation_date 2020-11-2
_audit_author_name 'Rocio Bueno-Perez'

_cell_length_a    18.126
_cell_length_b    20.015
_cell_length_c    21.79
_cell_angle_alpha 109.155
_cell_angle_beta  103.794
_cell_angle_gamma 99.7
_cell_volume      6984.99

_symmetry_cell_setting          triclinic
_symmetry_space_group_name_Hall 'P 1'
_symmetry_space_group_name_H-M  'P 1'
_symmetry_Int_Tables_number     1

_symmetry_equiv_pos_as_xyz 'x,y,z'

loop_
_atom_site_label
_atom_site_type_symbol
_atom_site_fract_x
_atom_site_fract_y
_atom_site_fract_z
_atom_site_charge
Rh1      Rh     0.920700000000     0.907100000000     0.347400000000     0          
Rh2      Rh     0.558600000000     0.270100000000     0.547700000000     0          
Zr1      Zr     0.925590000000     0.367120000000     0.942610000000     0          
Zr2      Zr     0.999250000000     0.496450000000     0.111320000000     0          
Zr3      Zr     0.128120000000     0.467690000000     0.014230000000     0          
Cl1      Cl     0.583200000000     0.229100000000     0.443300000000     0          
Cl2      Cl     0.017300000000     0.021600000000     0.413000000000     0          
P1       P      0.425900000000     0.246100000000     0.508500000000     0          
P2       P      0.829600000000     0.960000000000     0.307700000000     0          
O1       O      0.043800000000     0.732000000000     0.080300000000     0          
C1       C      0.026900000000     0.762000000000     0.135600000000     0          
O2       O      0.949900000000     0.747800000000     0.126300000000     0          
O4       O      0.027300000000     0.416800000000     0.922500000000     0          
O5       O      0.901200000000     0.447200000000     0.021600000000     0          
O6       O      0.027700000000     0.412200000000     0.035900000000     0          
O7       O      0.100600000000     0.544200000000     0.090800000000     0          
O8       O      0.243100000000     0.554300000000     0.063900000000     0          
O9       O      0.204000000000     0.664800000000     0.094000000000     0          
O10      O      0.180100000000     0.449800000000     0.107400000000     0          
O11      O      0.098500000000     0.467500000000     0.171800000000     0          
O12      O      0.182500000000     0.452200000000     0.929700000000     0          
O13      O      0.101800000000     0.475600000000     0.848800000000     0          
O14      O      0.888000000000     0.314600000000     0.824300000000     0          
O15      O      0.942700000000     0.402600000000     0.790200000000     0          
O16      O      0.943400000000     0.392900000000     0.122200000000     0          
O17      O      0.890700000000     0.310000000000     0.010400000000     0          
C2       C      0.910700000000     0.331500000000     0.070000000000     0          
C3       C      0.161000000000     0.462100000000     0.882000000000     0          
C4       C      0.898600000000     0.268800000000     0.102100000000     0          
C5       C      0.940200000000     0.282700000000     0.169400000000     0          
H1       H      0.975900000000     0.329500000000     0.197700000000     0          
C6       C      0.929500000000     0.228200000000     0.195300000000     0          
H2       H      0.957900000000     0.237700000000     0.241400000000     0          
C7       C      0.877300000000     0.159800000000     0.153900000000     0          
C8       C      0.835700000000     0.145800000000     0.086600000000     0          
H3       H      0.800000000000     0.099000000000     0.058300000000     0          
C9       C      0.846300000000     0.200300000000     0.060700000000     0          
H4       H      0.817900000000     0.190800000000     0.014600000000     0          
C10      C      0.185000000000     0.961800000000     0.294200000000     0          
C11      C      0.211000000000     0.918000000000     0.244000000000     0          
H5       H      0.264800000000     0.930100000000     0.246300000000     0          
C12      C      0.158000000000     0.855800000000     0.190800000000     0          
H6       H      0.175600000000     0.825800000000     0.156600000000     0          
C13      C      0.079300000000     0.837800000000     0.187500000000     0          
C14      C      0.053600000000     0.881800000000     0.237600000000     0          
H7       H      0.999800000000     0.869400000000     0.235400000000     0          
C15      C      0.107000000000     0.943700000000     0.290900000000     0          
H8       H      0.089000000000     0.973800000000     0.325100000000     0          
C16      C      0.686000000000     0.365000000000     0.615000000000     0          
H9       H      0.717900000000     0.391300000000     0.593000000000     0          
C17      C      0.867000000000     0.105000000000     0.181000000000     0          
C18      C      0.924000000000     0.090000000000     0.224000000000     0          
H10      H      0.977900000000     0.114100000000     0.232900000000     0          
C19      C      0.794000000000     0.059000000000     0.176000000000     0          
H11      H      0.749800000000     0.060900000000     0.143500000000     0          
C20      C      0.773000000000     0.012000000000     0.208000000000     0          
H12      H      0.720800000000     0.986000000000     0.200500000000     0          
C21      C      0.909000000000     0.043000000000     0.256000000000     0          
H13      H      0.952500000000     0.033500000000     0.283200000000     0          
C22      C      0.834000000000     0.008000000000     0.249000000000     0          
C23      C      0.363000000000     0.151000000000     0.458800000000     0          
C24      C      0.286100000000     0.134400000000     0.460500000000     0          
H14      H      0.271800000000     0.165000000000     0.496900000000     0          
C25      C      0.230100000000     0.072900000000     0.409100000000     0          
H15      H      0.177500000000     0.061500000000     0.410300000000     0          
C26      C      0.251000000000     0.028000000000     0.356000000000     0          
C27      C      0.328000000000     0.044700000000     0.354200000000     0          
H16      H      0.342100000000     0.014000000000     0.317900000000     0          
C28      C      0.383800000000     0.106200000000     0.405600000000     0          
H17      H      0.436400000000     0.117600000000     0.404400000000     0          
C29      C      0.829800000000     0.014600000000     0.441100000000     0          
H18      H      0.836400000000     0.967600000000     0.438000000000     0          
C30      C      0.827100000000     0.064000000000     0.502100000000     0          
H19      H      0.831800000000     0.050800000000     0.540700000000     0          
C31      C      0.817400000000     0.132700000000     0.506700000000     0          
C32      C      0.810500000000     0.152100000000     0.450300000000     0          
H20      H      0.803900000000     0.199000000000     0.453400000000     0          
C33      C      0.813300000000     0.102700000000     0.389300000000     0          
H21      H      0.808500000000     0.115900000000     0.350700000000     0          
C34      C      0.822900000000     0.033900000000     0.384700000000     0          
C35      C      0.829400000000     0.219100000000     0.691200000000     0          
H22      H      0.813300000000     0.203600000000     0.724000000000     0          
C36      C      0.873500000000     0.290800000000     0.710700000000     0          
C37      C      0.896900000000     0.313400000000     0.662800000000     0          
H23      H      0.927100000000     0.362400000000     0.676200000000     0          
C38      C      0.876200000000     0.264200000000     0.595400000000     0          
H24      H      0.892300000000     0.279600000000     0.562600000000     0          
C39      C      0.832100000000     0.192500000000     0.575900000000     0          
C40      C      0.808700000000     0.169900000000     0.623800000000     0          
H25      H      0.778500000000     0.120900000000     0.610500000000     0          
C41      C      0.905000000000     0.340000000000     0.785000000000     0          
C42      C      0.722800000000     0.902000000000     0.268100000000     0          
C43      C      0.707000000000     0.843000000000     0.202000000000     0          
H26      H      0.745700000000     0.838100000000     0.179900000000     0          
C44      C      0.631000000000     0.793700000000     0.172800000000     0          
H27      H      0.617000000000     0.753800000000     0.130000000000     0          
C45      C      0.576000000000     0.805200000000     0.208900000000     0          
C46      C      0.589000000000     0.867000000000     0.273000000000     0          
H28      H      0.548200000000     0.876100000000     0.292700000000     0          
C47      C      0.666000000000     0.912000000000     0.302000000000     0          
H29      H      0.680200000000     0.950000000000     0.345400000000     0          
C48      C      0.431400000000     0.793200000000     0.185000000000     0          
H30      H      0.441500000000     0.844900000000     0.206900000000     0          
C49      C      0.354300000000     0.748900000000     0.157400000000     0          
H31      H      0.311700000000     0.770400000000     0.160300000000     0          
C50      C      0.339600000000     0.673300000000     0.125400000000     0          
C51      C      0.402000000000     0.641900000000     0.121100000000     0          
H32      H      0.391900000000     0.590200000000     0.099200000000     0          
C52      C      0.479100000000     0.686200000000     0.148800000000     0          
H33      H      0.521700000000     0.664700000000     0.145800000000     0          
C53      C      0.493800000000     0.761800000000     0.180700000000     0          
C54      C      0.888000000000     0.793000000000     0.400000000000     0          
H34      H      0.862400000000     0.785900000000     0.434500000000     0          
C55      C      0.251000000000     0.624400000000     0.088900000000     0          
C56      C      0.162000000000     0.449700000000     0.160800000000     0          
C57      C      0.210100000000     0.431400000000     0.217800000000     0          
C58      C      0.186800000000     0.434200000000     0.274700000000     0          
H35      H      0.143700000000     0.453500000000     0.281600000000     0          
C59      C      0.226600000000     0.408700000000     0.321500000000     0          
H36      H      0.210700000000     0.410600000000     0.360300000000     0          
C60      C      0.289700000000     0.380500000000     0.311300000000     0          
C61      C      0.313000000000     0.377800000000     0.254400000000     0          
H37      H      0.356100000000     0.358500000000     0.247500000000     0          
C62      C      0.273200000000     0.403200000000     0.207600000000     0          
H38      H      0.289200000000     0.401400000000     0.168700000000     0          
C63      C      0.387900000000     0.290400000000     0.450200000000     0          
C64      C      0.436800000000     0.325700000000     0.423500000000     0          
H39      H      0.491800000000     0.329700000000     0.437100000000     0          
C65      C      0.405400000000     0.355200000000     0.377000000000     0          
H40      H      0.438900000000     0.379400000000     0.358700000000     0          
C66      C      0.325000000000     0.349300000000     0.357100000000     0          
C67      C      0.276100000000     0.314000000000     0.383800000000     0          
H41      H      0.221200000000     0.310000000000     0.370300000000     0          
C68      C      0.307500000000     0.284500000000     0.430400000000     0          
H42      H      0.274000000000     0.260300000000     0.448600000000     0          
C69      C      0.391000000000     0.290500000000     0.578700000000     0          
C70      C      0.389500000000     0.261000000000     0.628100000000     0          
H43      H      0.407700000000     0.218600000000     0.625400000000     0          
C71      C      0.361400000000     0.293500000000     0.681400000000     0          
H44      H      0.360400000000     0.273400000000     0.715200000000     0          
C72      C      0.334700000000     0.355500000000     0.685400000000     0          
C73      C      0.336200000000     0.385000000000     0.636000000000     0          
H45      H      0.318000000000     0.427400000000     0.638600000000     0          
C74      C      0.364300000000     0.352400000000     0.582600000000     0          
H46      H      0.365300000000     0.372600000000     0.548800000000     0          
C75      C      0.292000000000     0.386000000000     0.730000000000     0          
C76      C      0.298600000000     0.371100000000     0.792500000000     0          
H47      H      0.332600000000     0.341800000000     0.801700000000     0          
C77      C      0.259500000000     0.395700000000     0.838600000000     0          
H48      H      0.267600000000     0.383800000000     0.878100000000     0          
C78      C      0.207400000000     0.438500000000     0.827500000000     0          
C79      C      0.198000000000     0.458200000000     0.772000000000     0          
H49      H      0.165800000000     0.488600000000     0.763000000000     0          
C80      C      0.244000000000     0.428000000000     0.728000000000     0          
H50      H      0.236800000000     0.441200000000     0.689200000000     0          
C81      C      0.974000000000     0.856000000000     0.424000000000     0          
H51      H      0.008700000000     0.885000000000     0.472100000000     0          
C82      C      0.002000000000     0.845000000000     0.357000000000     0          
H52      H      0.057300000000     0.858600000000     0.357500000000     0          
C83      C      0.836000000000     0.805000000000     0.327000000000     0          
H53      H      0.778900000000     0.802100000000     0.317700000000     0          
C84      C      0.938000000000     0.771000000000     0.308000000000     0          
H54      H      0.957900000000     0.740000000000     0.272900000000     0          
C85      C      0.866000000000     0.792100000000     0.277000000000     0          
H55      H      0.836200000000     0.774200000000     0.227000000000     0          
C86      C      0.923000000000     0.734000000000     0.360000000000     0          
H56      H      0.885500000000     0.685000000000     0.336700000000     0          
H57      H      0.973000000000     0.731500000000     0.389300000000     0          
C87      C      0.644000000000     0.405000000000     0.664000000000     0          
H58      H      0.654600000000     0.459700000000     0.680200000000     0          
C88      C      0.560000000000     0.360000000000     0.642000000000     0          
H59      H      0.514300000000     0.381300000000     0.646400000000     0          
C89      C      0.569000000000     0.287000000000     0.657000000000     0          
H60      H      0.530900000000     0.258700000000     0.671300000000     0          
C90      C      0.687000000000     0.370000000000     0.715000000000     0          
H61      H      0.670400000000     0.381600000000     0.756400000000     0          
H62      H      0.744800000000     0.387300000000     0.727800000000     0          
C91      C      0.653000000000     0.285000000000     0.666000000000     0          
H63      H      0.670500000000     0.250000000000     0.686200000000     0          
C92      C      0.675000000000     0.282000000000     0.600000000000     0          
H64      H      0.709400000000     0.252200000000     0.581500000000     0          
Rh1      Rh     0.079300000000     0.092900000000     0.652600000000     0          
Rh2      Rh     0.441400000000     0.729900000000     0.452300000000     0          
Zr1      Zr     0.074410000000     0.632880000000     0.057390000000     0          
Zr2      Zr     0.000750000000     0.503550000000     0.888680000000     0          
Zr3      Zr     0.871880000000     0.532310000000     0.985770000000     0          
Cl1      Cl     0.416800000000     0.770900000000     0.556700000000     0          
Cl2      Cl     0.982700000000     0.978400000000     0.587000000000     0          
P1       P      0.574100000000     0.753900000000     0.491500000000     0          
P2       P      0.170400000000     0.040000000000     0.692300000000     0          
O1       O      0.956200000000     0.268000000000     0.919700000000     0          
C1       C      0.973100000000     0.238000000000     0.864400000000     0          
O2       O      0.050100000000     0.252200000000     0.873700000000     0          
O4       O      0.972700000000     0.583200000000     0.077500000000     0          
O5       O      0.098800000000     0.552800000000     0.978400000000     0          
O6       O      0.972300000000     0.587800000000     0.964100000000     0          
O7       O      0.899400000000     0.455800000000     0.909200000000     0          
O8       O      0.756900000000     0.445700000000     0.936100000000     0          
O9       O      0.796000000000     0.335200000000     0.906000000000     0          
O10      O      0.819900000000     0.550200000000     0.892600000000     0          
O11      O      0.901500000000     0.532500000000     0.828200000000     0          
O12      O      0.817500000000     0.547800000000     0.070300000000     0          
O13      O      0.898200000000     0.524400000000     0.151200000000     0          
O14      O      0.112000000000     0.685400000000     0.175700000000     0          
O15      O      0.057300000000     0.597400000000     0.209800000000     0          
O16      O      0.056600000000     0.607100000000     0.877800000000     0          
O17      O      0.109300000000     0.690000000000     0.989600000000     0          
C2       C      0.089300000000     0.668500000000     0.930000000000     0          
C3       C      0.839000000000     0.537900000000     0.118000000000     0          
C4       C      0.101400000000     0.731200000000     0.897900000000     0          
C5       C      0.059800000000     0.717300000000     0.830600000000     0          
H1       H      0.024100000000     0.670500000000     0.802300000000     0          
C6       C      0.070500000000     0.771800000000     0.804700000000     0          
H2       H      0.042100000000     0.762300000000     0.758600000000     0          
C7       C      0.122700000000     0.840200000000     0.846100000000     0          
C8       C      0.164300000000     0.854200000000     0.913400000000     0          
H3       H      0.200000000000     0.901000000000     0.941700000000     0          
C9       C      0.153700000000     0.799700000000     0.939300000000     0          
H4       H      0.182100000000     0.809200000000     0.985400000000     0          
C10      C      0.815000000000     0.038200000000     0.705800000000     0          
C11      C      0.789000000000     0.082000000000     0.756000000000     0          
H5       H      0.735200000000     0.069900000000     0.753700000000     0          
C12      C      0.842000000000     0.144200000000     0.809200000000     0          
H6       H      0.824400000000     0.174200000000     0.843400000000     0          
C13      C      0.920700000000     0.162200000000     0.812500000000     0          
C14      C      0.946400000000     0.118200000000     0.762400000000     0          
H7       H      0.000200000000     0.130600000000     0.764600000000     0          
C15      C      0.893000000000     0.056300000000     0.709100000000     0          
H8       H      0.911000000000     0.026200000000     0.674900000000     0          
C16      C      0.314000000000     0.635000000000     0.385000000000     0          
H9       H      0.282100000000     0.608700000000     0.407000000000     0          
C17      C      0.133000000000     0.895000000000     0.819000000000     0          
C18      C      0.076000000000     0.910000000000     0.776000000000     0          
H10      H      0.022100000000     0.885900000000     0.767100000000     0          
C19      C      0.206000000000     0.941000000000     0.824000000000     0          
H11      H      0.250200000000     0.939100000000     0.856500000000     0          
C20      C      0.227000000000     0.988000000000     0.792000000000     0          
H12      H      0.279200000000     0.014000000000     0.799500000000     0          
C21      C      0.091000000000     0.957000000000     0.744000000000     0          
H13      H      0.047500000000     0.966500000000     0.716800000000     0          
C22      C      0.166000000000     0.992000000000     0.751000000000     0          
C23      C      0.637000000000     0.849000000000     0.541200000000     0          
C24      C      0.713900000000     0.865600000000     0.539500000000     0          
H14      H      0.728200000000     0.835000000000     0.503100000000     0          
C25      C      0.769900000000     0.927100000000     0.590900000000     0          
H15      H      0.822500000000     0.938500000000     0.589700000000     0          
C26      C      0.749000000000     0.972000000000     0.644000000000     0          
C27      C      0.672000000000     0.955300000000     0.645800000000     0          
H16      H      0.657900000000     0.986000000000     0.682100000000     0          
C28      C      0.616200000000     0.893800000000     0.594400000000     0          
H17      H      0.563600000000     0.882400000000     0.595600000000     0          
C29      C      0.170200000000     0.985400000000     0.558900000000     0          
H18      H      0.163600000000     0.032400000000     0.562000000000     0          
C30      C      0.172900000000     0.936000000000     0.497900000000     0          
H19      H      0.168200000000     0.949200000000     0.459300000000     0          
C31      C      0.182600000000     0.867300000000     0.493300000000     0          
C32      C      0.189500000000     0.847900000000     0.549700000000     0          
H20      H      0.196100000000     0.801000000000     0.546600000000     0          
C33      C      0.186700000000     0.897300000000     0.610700000000     0          
H21      H      0.191500000000     0.884100000000     0.649300000000     0          
C34      C      0.177100000000     0.966100000000     0.615300000000     0          
C35      C      0.170600000000     0.780900000000     0.308800000000     0          
H22      H      0.186700000000     0.796400000000     0.276000000000     0          
C36      C      0.126500000000     0.709200000000     0.289300000000     0          
C37      C      0.103100000000     0.686600000000     0.337200000000     0          
H23      H      0.072900000000     0.637600000000     0.323800000000     0          
C38      C      0.123800000000     0.735800000000     0.404600000000     0          
H24      H      0.107700000000     0.720400000000     0.437400000000     0          
C39      C      0.167900000000     0.807500000000     0.424100000000     0          
C40      C      0.191300000000     0.830100000000     0.376200000000     0          
H25      H      0.221500000000     0.879100000000     0.389500000000     0          
C41      C      0.095000000000     0.660000000000     0.215000000000     0          
C42      C      0.277200000000     0.098000000000     0.731900000000     0          
C43      C      0.293000000000     0.157000000000     0.798000000000     0          
H26      H      0.254300000000     0.161900000000     0.820100000000     0          
C44      C      0.369000000000     0.206300000000     0.827200000000     0          
H27      H      0.383000000000     0.246200000000     0.870000000000     0          
C45      C      0.424000000000     0.194800000000     0.791100000000     0          
C46      C      0.411000000000     0.133000000000     0.727000000000     0          
H28      H      0.451800000000     0.123900000000     0.707300000000     0          
C47      C      0.334000000000     0.088000000000     0.698000000000     0          
H29      H      0.319800000000     0.050000000000     0.654600000000     0          
C48      C      0.568600000000     0.206800000000     0.815000000000     0          
H30      H      0.558500000000     0.155100000000     0.793100000000     0          
C49      C      0.645700000000     0.251100000000     0.842600000000     0          
H31      H      0.688300000000     0.229600000000     0.839700000000     0          
C50      C      0.660400000000     0.326700000000     0.874600000000     0          
C51      C      0.598000000000     0.358100000000     0.878900000000     0          
H32      H      0.608100000000     0.409800000000     0.900800000000     0          
C52      C      0.520900000000     0.313800000000     0.851200000000     0          
H33      H      0.478300000000     0.335300000000     0.854200000000     0          
C53      C      0.506200000000     0.238200000000     0.819300000000     0          
C54      C      0.112000000000     0.207000000000     0.600000000000     0          
H34      H      0.137600000000     0.214100000000     0.565500000000     0          
C55      C      0.749000000000     0.375600000000     0.911100000000     0          
C56      C      0.838000000000     0.550300000000     0.839200000000     0          
C57      C      0.789900000000     0.568600000000     0.782200000000     0          
C58      C      0.813200000000     0.565800000000     0.725300000000     0          
H35      H      0.856300000000     0.546500000000     0.718400000000     0          
C59      C      0.773400000000     0.591300000000     0.678500000000     0          
H36      H      0.789300000000     0.589400000000     0.639700000000     0          
C60      C      0.710300000000     0.619500000000     0.688700000000     0          
C61      C      0.687000000000     0.622200000000     0.745600000000     0          
H37      H      0.643900000000     0.641500000000     0.752500000000     0          
C62      C      0.726800000000     0.596800000000     0.792400000000     0          
H38      H      0.710800000000     0.598600000000     0.831300000000     0          
C63      C      0.612100000000     0.709600000000     0.549800000000     0          
C64      C      0.563200000000     0.674300000000     0.576500000000     0          
H39      H      0.508200000000     0.670300000000     0.562900000000     0          
C65      C      0.594600000000     0.644800000000     0.623000000000     0          
H40      H      0.561100000000     0.620600000000     0.641300000000     0          
C66      C      0.675000000000     0.650700000000     0.642900000000     0          
C67      C      0.723900000000     0.686000000000     0.616200000000     0          
H41      H      0.778800000000     0.690000000000     0.629700000000     0          
C68      C      0.692500000000     0.715500000000     0.569600000000     0          
H42      H      0.726000000000     0.739700000000     0.551400000000     0          
C69      C      0.609000000000     0.709500000000     0.421300000000     0          
C70      C      0.610500000000     0.739000000000     0.371900000000     0          
H43      H      0.592300000000     0.781400000000     0.374600000000     0          
C71      C      0.638600000000     0.706500000000     0.318600000000     0          
H44      H      0.639600000000     0.726600000000     0.284800000000     0          
C72      C      0.665300000000     0.644500000000     0.314600000000     0          
C73      C      0.663800000000     0.615000000000     0.364000000000     0          
H45      H      0.682000000000     0.572600000000     0.361400000000     0          
C74      C      0.635700000000     0.647600000000     0.417400000000     0          
H46      H      0.634700000000     0.627400000000     0.451200000000     0          
C75      C      0.708000000000     0.614000000000     0.270000000000     0          
C76      C      0.701400000000     0.628900000000     0.207500000000     0          
H47      H      0.667400000000     0.658200000000     0.198300000000     0          
C77      C      0.740500000000     0.604300000000     0.161400000000     0          
H48      H      0.732400000000     0.616200000000     0.121900000000     0          
C78      C      0.792600000000     0.561500000000     0.172500000000     0          
C79      C      0.802000000000     0.541800000000     0.228000000000     0          
H49      H      0.834200000000     0.511400000000     0.237000000000     0          
C80      C      0.756000000000     0.572000000000     0.272000000000     0          
H50      H      0.763200000000     0.558800000000     0.310800000000     0          
C81      C      0.026000000000     0.144000000000     0.576000000000     0          
H51      H      0.991300000000     0.115000000000     0.527900000000     0          
C82      C      0.998000000000     0.155000000000     0.643000000000     0          
H52      H      0.942700000000     0.141400000000     0.642500000000     0          
C83      C      0.164000000000     0.195000000000     0.673000000000     0          
H53      H      0.221100000000     0.197900000000     0.682300000000     0          
C84      C      0.062000000000     0.229000000000     0.692000000000     0          
H54      H      0.042100000000     0.260000000000     0.727100000000     0          
C85      C      0.134000000000     0.207900000000     0.723000000000     0          
H55      H      0.163800000000     0.225800000000     0.773000000000     0          
C86      C      0.077000000000     0.266000000000     0.640000000000     0          
H56      H      0.114500000000     0.315000000000     0.663300000000     0          
H57      H      0.027000000000     0.268500000000     0.610700000000     0          
C87      C      0.356000000000     0.595000000000     0.336000000000     0          
H58      H      0.345400000000     0.540300000000     0.319800000000     0          
C88      C      0.440000000000     0.640000000000     0.358000000000     0          
H59      H      0.485700000000     0.618700000000     0.353600000000     0          
C89      C      0.431000000000     0.713000000000     0.343000000000     0          
H60      H      0.469100000000     0.741300000000     0.328700000000     0          
C90      C      0.313000000000     0.630000000000     0.285000000000     0          
H61      H      0.329600000000     0.618400000000     0.243600000000     0          
H62      H      0.255200000000     0.612700000000     0.272200000000     0          
C91      C      0.347000000000     0.715000000000     0.334000000000     0          
H63      H      0.329500000000     0.750000000000     0.313800000000     0          
C92      C      0.325000000000     0.718000000000     0.400000000000     0          
H64      H      0.290600000000     0.747800000000     0.418500000000     0          


