data_OWILIR

_audit_creation_method RASPA-1.0
_audit_creation_date 2020-11-2
_audit_author_name 'Rocio Bueno-Perez'

_cell_length_a    19.783
_cell_length_b    21.51
_cell_length_c    23.023
_cell_angle_alpha 117.806
_cell_angle_beta  111.824
_cell_angle_gamma 90.022
_cell_volume      7862.45

_symmetry_cell_setting          triclinic
_symmetry_space_group_name_Hall 'P 1'
_symmetry_space_group_name_H-M  'P 1'
_symmetry_Int_Tables_number     1

_symmetry_equiv_pos_as_xyz 'x,y,z'

loop_
_atom_site_label
_atom_site_type_symbol
_atom_site_fract_x
_atom_site_fract_y
_atom_site_fract_z
_atom_site_charge
Ir1      Ir     0.520200000000     0.423300000000     0.345420000000     0          
Zr2      Zr     0.999640000000     0.114760000000     0.500300000000     0          
Zr3      Zr     0.081170000000     0.066480000000     0.631270000000     0          
Zr4      Zr     0.887970000000     0.011460000000     0.524540000000     0          
P5       P      0.809800000000     0.229800000000     0.962000000000     0          
Ir6      Ir     0.876300000000     0.201000000000     0.900500000000     0          
O7       O      0.990700000000     0.254800000000     0.998700000000     0          
P8       P      0.398300000000     0.405500000000     0.312400000000     0          
O9       O      0.983000000000     0.984000000000     0.584600000000     0          
O10      O      0.098900000000     0.088300000000     0.556600000000     0          
O11      O      0.088800000000     0.823100000000     0.477700000000     0          
O12      O      0.936000000000     0.779500000000     0.398500000000     0          
O13      O      0.225900000000     0.031100000000     0.570500000000     0          
O14      O      0.882700000000     0.806400000000     0.315500000000     0          
O15      O      0.083200000000     0.157100000000     0.480400000000     0          
O16      O      0.985500000000     0.098300000000     0.584200000000     0          
O17      O      0.158900000000     0.080300000000     0.466600000000     0          
O18      O      0.881800000000     0.009900000000     0.318200000000     0          
O19      O      0.879600000000     0.063000000000     0.634400000000     0          
O20      O      0.103500000000     0.966700000000     0.557200000000     0          
O21      O      0.938300000000     0.116100000000     0.397400000000     0          
O22      O      0.064900000000     0.118200000000     0.739800000000     0          
O23      O      0.162300000000     0.887900000000     0.463800000000     0          
O24      O      0.209600000000     0.078400000000     0.665300000000     0          
C25      C      0.901000000000     0.766000000000     0.336000000000     0          
C26      C      0.286000000000     0.731000000000     0.412000000000     0          
C27      C      0.199000000000     0.659000000000     0.414000000000     0          
C28      C      0.708700000000     0.209800000000     0.899200000000     0          
C29      C      0.655700000000     0.236100000000     0.925300000000     0          
C30      C      0.580500000000     0.205800000000     0.881000000000     0          
C31      C      0.558200000000     0.149100000000     0.810600000000     0          
C32      C      0.611200000000     0.122800000000     0.784600000000     0          
C33      C      0.686400000000     0.153100000000     0.828800000000     0          
C34      C      0.884000000000     0.087200000000     0.278300000000     0          
C35      C      0.838700000000     0.037100000000     0.206500000000     0          
C36      C      0.823200000000     0.055600000000     0.153200000000     0          
C37      C      0.853100000000     0.124200000000     0.171800000000     0          
C38      C      0.898300000000     0.174300000000     0.243500000000     0          
C39      C      0.913800000000     0.155800000000     0.296800000000     0          
C40      C      0.186000000000     0.782200000000     0.444900000000     0          
C41      C      0.355000000000     0.346700000000     0.329800000000     0          
C42      C      0.404600000000     0.330000000000     0.379300000000     0          
C43      C      0.377000000000     0.293900000000     0.405500000000     0          
C44      C      0.301000000000     0.274500000000     0.382000000000     0          
C45      C      0.251800000000     0.291000000000     0.333000000000     0          
C46      C      0.279000000000     0.327000000000     0.306500000000     0          
C47      C      0.247300000000     0.064500000000     0.633000000000     0          
C48      C      0.201900000000     0.214400000000     0.983600000000     0          
C49      C      0.199600000000     0.226900000000     0.928900000000     0          
C50      C      0.146800000000     0.182500000000     0.858300000000     0          
C51      C      0.096400000000     0.125700000000     0.842400000000     0          
C52      C      0.098700000000     0.113300000000     0.897100000000     0          
C53      C      0.152000000000     0.157600000000     0.967700000000     0          
C54      C      0.239000000000     0.785100000000     0.432500000000     0          
C55      C      0.823800000000     0.198000000000     0.019000000000     0          
C56      C      0.834900000000     0.129000000000     0.000200000000     0          
C57      C      0.849600000000     0.105900000000     0.050000000000     0          
C58      C      0.853200000000     0.152000000000     0.119000000000     0          
C59      C      0.842100000000     0.222000000000     0.137100000000     0          
C60      C      0.827400000000     0.244600000000     0.087000000000     0          
C61      C      0.324200000000     0.090800000000     0.676000000000     0          
C62      C      0.377300000000     0.074700000000     0.648100000000     0          
C63      C      0.452700000000     0.096800000000     0.694700000000     0          
C64      C      0.474900000000     0.135000000000     0.769100000000     0          
C65      C      0.421700000000     0.151100000000     0.797000000000     0          
C66      C      0.346400000000     0.129000000000     0.750500000000     0          
C67      C      0.129700000000     0.136800000000     0.462600000000     0          
C68      C      0.855900000000     0.549700000000     0.172600000000     0          
C69      C      0.824900000000     0.601200000000     0.157300000000     0          
C70      C      0.839700000000     0.671600000000     0.213000000000     0          
C71      C      0.885600000000     0.690600000000     0.283900000000     0          
C72      C      0.916700000000     0.639100000000     0.299100000000     0          
C73      C      0.901800000000     0.568600000000     0.243500000000     0          
C74      C      0.256000000000     0.664000000000     0.403000000000     0          
C75      C      0.188400000000     0.161600000000     0.448100000000     0          
C76      C      0.247900000000     0.140600000000     0.430700000000     0          
C77      C      0.284700000000     0.181000000000     0.414800000000     0          
C78      C      0.262000000000     0.243000000000     0.416500000000     0          
C79      C      0.203000000000     0.264200000000     0.434000000000     0          
C80      C      0.165800000000     0.223300000000     0.449800000000     0          
C81      C      0.352000000000     0.353400000000     0.211000000000     0          
C82      C      0.378900000000     0.333600000000     0.159000000000     0          
C83      C      0.331000000000     0.293500000000     0.085700000000     0          
C84      C      0.255000000000     0.273100000000     0.065200000000     0          
C85      C      0.227800000000     0.293000000000     0.118000000000     0          
C86      C      0.276000000000     0.333000000000     0.190500000000     0          
C87      C      0.135200000000     0.835400000000     0.461900000000     0          
C88      C      0.303600000000     0.607300000000     0.394100000000     0          
C89      C      0.380100000000     0.613900000000     0.415800000000     0          
C90      C      0.408700000000     0.555100000000     0.382000000000     0          
C91      C      0.361000000000     0.489700000000     0.326500000000     0          
C92      C      0.284200000000     0.483100000000     0.304900000000     0          
C93      C      0.255600000000     0.541900000000     0.338600000000     0          
C94      C      0.849900000000     0.469200000000     0.120900000000     0          
C95      C      0.885500000000     0.426400000000     0.147700000000     0          
C96      C      0.877700000000     0.353800000000     0.101000000000     0          
C97      C      0.834400000000     0.324100000000     0.026900000000     0          
C98      C      0.798900000000     0.366900000000     0.000100000000     0          
C99      C      0.806600000000     0.439500000000     0.047100000000     0          
C100     C      0.152000000000     0.725000000000     0.443000000000     0          
C101     C      0.902000000000     0.075000000000     0.338000000000     0          
H102     H      0.673960000000     0.282530000000     0.983050000000     0          
H103     H      0.052540000000     0.267430000000     0.023960000000     0          
H104     H      0.126740000000     0.130830000000     0.765060000000     0          
H105     H      0.337170000000     0.745910000000     0.405740000000     0          
H106     H      0.173410000000     0.605720000000     0.404430000000     0          
H107     H      0.537020000000     0.227420000000     0.902360000000     0          
H108     H      0.592990000000     0.076280000000     0.726900000000     0          
H109     H      0.729840000000     0.131490000000     0.807370000000     0          
H110     H      0.467170000000     0.345820000000     0.398070000000     0          
H111     H      0.417130000000     0.280360000000     0.446340000000     0          
H112     H      0.189250000000     0.275220000000     0.314360000000     0          
H113     H      0.238470000000     0.340190000000     0.265560000000     0          
H114     H      0.261600000000     0.835790000000     0.435510000000     0          
H115     H      0.359080000000     0.043390000000     0.587040000000     0          
H116     H      0.496280000000     0.083560000000     0.671820000000     0          
H117     H      0.439880000000     0.182450000000     0.858060000000     0          
H118     H      0.302810000000     0.142160000000     0.773370000000     0          
H119     H      0.266440000000     0.090010000000     0.429520000000     0          
H120     H      0.333370000000     0.163590000000     0.400380000000     0          
H121     H      0.184850000000     0.315020000000     0.435490000000     0          
H122     H      0.116980000000     0.240380000000     0.464080000000     0          
H123     H      0.440920000000     0.350010000000     0.175740000000     0          
H124     H      0.353910000000     0.277670000000     0.043160000000     0          
H125     H      0.165850000000     0.276260000000     0.101310000000     0          
H126     H      0.253750000000     0.349350000000     0.233560000000     0          
H127     H      0.419450000000     0.667520000000     0.461320000000     0          
H128     H      0.471460000000     0.560540000000     0.399850000000     0          
H129     H      0.244810000000     0.429440000000     0.259560000000     0          
H130     H      0.192840000000     0.536470000000     0.320720000000     0          
H131     H      0.104070000000     0.714590000000     0.455630000000     0          
H132     H      0.814250000000     0.980840000000     0.191300000000     0          
H133     H      0.786010000000     0.014520000000     0.094340000000     0          
H134     H      0.922680000000     0.230560000000     0.258650000000     0          
H135     H      0.950950000000     0.196900000000     0.355670000000     0          
H136     H      0.831980000000     0.091300000000     0.944020000000     0          
H137     H      0.858830000000     0.049040000000     0.034770000000     0          
H138     H      0.893510000000     0.261040000000     0.187540000000     0          
H139     H      0.792370000000     0.230250000000     0.151590000000     0          
H140     H      0.818320000000     0.301450000000     0.101920000000     0          
H141     H      0.787390000000     0.585680000000     0.099130000000     0          
H142     H      0.814170000000     0.713870000000     0.200560000000     0          
H143     H      0.954480000000     0.654630000000     0.357210000000     0          
H144     H      0.927210000000     0.526360000000     0.256070000000     0          
H145     H      0.921230000000     0.450870000000     0.208180000000     0          
H146     H      0.906590000000     0.318760000000     0.123230000000     0          
H147     H      0.763460000000     0.342500000000     0.939580000000     0          
H148     H      0.777450000000     0.474670000000     0.025180000000     0          
H149     H      0.941440000000     0.075630000000     0.659660000000     0          
H150     H      0.154590000000     0.147100000000     0.012580000000     0          
Ir1      Ir     0.479800000000     0.576700000000     0.654580000000     0          
Zr2      Zr     0.000360000000     0.885240000000     0.499700000000     0          
Zr3      Zr     0.918830000000     0.933520000000     0.368730000000     0          
Zr4      Zr     0.112030000000     0.988540000000     0.475460000000     0          
P5       P      0.190200000000     0.770200000000     0.038000000000     0          
Ir6      Ir     0.123700000000     0.799000000000     0.099500000000     0          
O7       O      0.009300000000     0.745200000000     0.001300000000     0          
P8       P      0.601700000000     0.594500000000     0.687600000000     0          
O9       O      0.017000000000     0.016000000000     0.415400000000     0          
O10      O      0.901100000000     0.911700000000     0.443400000000     0          
O11      O      0.911200000000     0.176900000000     0.522300000000     0          
O12      O      0.064000000000     0.220500000000     0.601500000000     0          
O13      O      0.774100000000     0.968900000000     0.429500000000     0          
O14      O      0.117300000000     0.193600000000     0.684500000000     0          
O15      O      0.916800000000     0.842900000000     0.519600000000     0          
O16      O      0.014500000000     0.901700000000     0.415800000000     0          
O17      O      0.841100000000     0.919700000000     0.533400000000     0          
O18      O      0.118200000000     0.990100000000     0.681800000000     0          
O19      O      0.120400000000     0.937000000000     0.365600000000     0          
O20      O      0.896500000000     0.033300000000     0.442800000000     0          
O21      O      0.061700000000     0.883900000000     0.602600000000     0          
O22      O      0.935100000000     0.881800000000     0.260200000000     0          
O23      O      0.837700000000     0.112100000000     0.536200000000     0          
O24      O      0.790400000000     0.921600000000     0.334700000000     0          
C25      C      0.099000000000     0.234000000000     0.664000000000     0          
C26      C      0.714000000000     0.269000000000     0.588000000000     0          
C27      C      0.801000000000     0.341000000000     0.586000000000     0          
C28      C      0.291300000000     0.790200000000     0.100800000000     0          
C29      C      0.344300000000     0.763900000000     0.074700000000     0          
C30      C      0.419500000000     0.794200000000     0.119000000000     0          
C31      C      0.441800000000     0.850900000000     0.189400000000     0          
C32      C      0.388800000000     0.877200000000     0.215400000000     0          
C33      C      0.313600000000     0.846900000000     0.171200000000     0          
C34      C      0.116000000000     0.912800000000     0.721700000000     0          
C35      C      0.161300000000     0.962900000000     0.793500000000     0          
C36      C      0.176800000000     0.944400000000     0.846800000000     0          
C37      C      0.146900000000     0.875800000000     0.828200000000     0          
C38      C      0.101700000000     0.825700000000     0.756500000000     0          
C39      C      0.086200000000     0.844200000000     0.703200000000     0          
C40      C      0.814000000000     0.217800000000     0.555100000000     0          
C41      C      0.645000000000     0.653300000000     0.670200000000     0          
C42      C      0.595400000000     0.670000000000     0.620700000000     0          
C43      C      0.623000000000     0.706100000000     0.594500000000     0          
C44      C      0.699000000000     0.725500000000     0.618000000000     0          
C45      C      0.748200000000     0.709000000000     0.667000000000     0          
C46      C      0.721000000000     0.673000000000     0.693500000000     0          
C47      C      0.752700000000     0.935500000000     0.367000000000     0          
C48      C      0.798100000000     0.785600000000     0.016400000000     0          
C49      C      0.800400000000     0.773100000000     0.071100000000     0          
C50      C      0.853200000000     0.817500000000     0.141700000000     0          
C51      C      0.903600000000     0.874300000000     0.157600000000     0          
C52      C      0.901300000000     0.886700000000     0.102900000000     0          
C53      C      0.848000000000     0.842400000000     0.032300000000     0          
C54      C      0.761000000000     0.214900000000     0.567500000000     0          
C55      C      0.176200000000     0.802000000000     0.981000000000     0          
C56      C      0.165100000000     0.871000000000     0.999800000000     0          
C57      C      0.150400000000     0.894100000000     0.950000000000     0          
C58      C      0.146800000000     0.848000000000     0.881000000000     0          
C59      C      0.157900000000     0.778000000000     0.862900000000     0          
C60      C      0.172600000000     0.755400000000     0.913000000000     0          
C61      C      0.675800000000     0.909200000000     0.324000000000     0          
C62      C      0.622700000000     0.925300000000     0.351900000000     0          
C63      C      0.547300000000     0.903200000000     0.305300000000     0          
C64      C      0.525100000000     0.865000000000     0.230900000000     0          
C65      C      0.578300000000     0.848900000000     0.203000000000     0          
C66      C      0.653600000000     0.871000000000     0.249500000000     0          
C67      C      0.870300000000     0.863200000000     0.537400000000     0          
C68      C      0.144100000000     0.450300000000     0.827400000000     0          
C69      C      0.175100000000     0.398800000000     0.842700000000     0          
C70      C      0.160300000000     0.328400000000     0.787000000000     0          
C71      C      0.114400000000     0.309400000000     0.716100000000     0          
C72      C      0.083300000000     0.360900000000     0.700900000000     0          
C73      C      0.098200000000     0.431400000000     0.756500000000     0          
C74      C      0.744000000000     0.336000000000     0.597000000000     0          
C75      C      0.811600000000     0.838400000000     0.551900000000     0          
C76      C      0.752100000000     0.859400000000     0.569300000000     0          
C77      C      0.715300000000     0.819000000000     0.585200000000     0          
C78      C      0.738000000000     0.757000000000     0.583500000000     0          
C79      C      0.797000000000     0.735800000000     0.566000000000     0          
C80      C      0.834200000000     0.776700000000     0.550200000000     0          
C81      C      0.648000000000     0.646600000000     0.789000000000     0          
C82      C      0.621100000000     0.666400000000     0.841000000000     0          
C83      C      0.669000000000     0.706500000000     0.914300000000     0          
C84      C      0.745000000000     0.726900000000     0.934800000000     0          
C85      C      0.772200000000     0.707000000000     0.882000000000     0          
C86      C      0.724000000000     0.667000000000     0.809500000000     0          
C87      C      0.864800000000     0.164600000000     0.538100000000     0          
C88      C      0.696400000000     0.392700000000     0.605900000000     0          
C89      C      0.619900000000     0.386100000000     0.584200000000     0          
C90      C      0.591300000000     0.444900000000     0.618000000000     0          
C91      C      0.639000000000     0.510300000000     0.673500000000     0          
C92      C      0.715800000000     0.516900000000     0.695100000000     0          
C93      C      0.744400000000     0.458100000000     0.661400000000     0          
C94      C      0.150100000000     0.530800000000     0.879100000000     0          
C95      C      0.114500000000     0.573600000000     0.852300000000     0          
C96      C      0.122300000000     0.646200000000     0.899000000000     0          
C97      C      0.165600000000     0.675900000000     0.973100000000     0          
C98      C      0.201100000000     0.633100000000     0.999900000000     0          
C99      C      0.193400000000     0.560500000000     0.952900000000     0          
C100     C      0.848000000000     0.275000000000     0.557000000000     0          
C101     C      0.098000000000     0.925000000000     0.662000000000     0          
H102     H      0.326040000000     0.717470000000     0.016950000000     0          
H103     H      0.947460000000     0.732570000000     0.976040000000     0          
H104     H      0.873260000000     0.869170000000     0.234940000000     0          
H105     H      0.662830000000     0.254090000000     0.594260000000     0          
H106     H      0.826590000000     0.394280000000     0.595570000000     0          
H107     H      0.462980000000     0.772580000000     0.097640000000     0          
H108     H      0.407010000000     0.923720000000     0.273100000000     0          
H109     H      0.270160000000     0.868510000000     0.192630000000     0          
H110     H      0.532830000000     0.654180000000     0.601930000000     0          
H111     H      0.582870000000     0.719640000000     0.553660000000     0          
H112     H      0.810750000000     0.724780000000     0.685640000000     0          
H113     H      0.761530000000     0.659810000000     0.734440000000     0          
H114     H      0.738400000000     0.164210000000     0.564490000000     0          
H115     H      0.640920000000     0.956610000000     0.412960000000     0          
H116     H      0.503720000000     0.916440000000     0.328180000000     0          
H117     H      0.560120000000     0.817550000000     0.141940000000     0          
H118     H      0.697190000000     0.857840000000     0.226630000000     0          
H119     H      0.733560000000     0.909990000000     0.570480000000     0          
H120     H      0.666630000000     0.836410000000     0.599620000000     0          
H121     H      0.815150000000     0.684980000000     0.564510000000     0          
H122     H      0.883020000000     0.759620000000     0.535920000000     0          
H123     H      0.559080000000     0.649990000000     0.824260000000     0          
H124     H      0.646090000000     0.722330000000     0.956840000000     0          
H125     H      0.834150000000     0.723740000000     0.898690000000     0          
H126     H      0.746250000000     0.650650000000     0.766440000000     0          
H127     H      0.580550000000     0.332480000000     0.538680000000     0          
H128     H      0.528540000000     0.439460000000     0.600150000000     0          
H129     H      0.755190000000     0.570560000000     0.740440000000     0          
H130     H      0.807160000000     0.463530000000     0.679280000000     0          
H131     H      0.895930000000     0.285410000000     0.544370000000     0          
H132     H      0.185750000000     0.019160000000     0.808700000000     0          
H133     H      0.213990000000     0.985480000000     0.905660000000     0          
H134     H      0.077320000000     0.769440000000     0.741350000000     0          
H135     H      0.049050000000     0.803100000000     0.644330000000     0          
H136     H      0.168020000000     0.908700000000     0.055980000000     0          
H137     H      0.141170000000     0.950960000000     0.965230000000     0          
H138     H      0.106490000000     0.738960000000     0.812460000000     0          
H139     H      0.207630000000     0.769750000000     0.848410000000     0          
H140     H      0.181680000000     0.698550000000     0.898080000000     0          
H141     H      0.212610000000     0.414320000000     0.900870000000     0          
H142     H      0.185830000000     0.286130000000     0.799440000000     0          
H143     H      0.045520000000     0.345370000000     0.642790000000     0          
H144     H      0.072790000000     0.473640000000     0.743930000000     0          
H145     H      0.078770000000     0.549130000000     0.791820000000     0          
H146     H      0.093410000000     0.681240000000     0.876770000000     0          
H147     H      0.236540000000     0.657500000000     0.060420000000     0          
H148     H      0.222550000000     0.525330000000     0.974820000000     0          
H149     H      0.058560000000     0.924370000000     0.340340000000     0          
H150     H      0.845410000000     0.852900000000     0.987420000000     0          


