data_POGMEG

_audit_creation_method RASPA-1.0
_audit_creation_date 2020-4-3
_audit_author_name 'Rocio Bueno-Perez'

_cell_length_a    14.669
_cell_length_b    14.669
_cell_length_c    26.8478
_cell_angle_alpha 90
_cell_angle_beta  90
_cell_angle_gamma 120
_cell_volume      5003.11

_symmetry_cell_setting          hexagonal
_symmetry_space_group_name_Hall 'P 1'
_symmetry_space_group_name_H-M  'P 1'
_symmetry_Int_Tables_number     1

_symmetry_equiv_pos_as_xyz 'x,y,z'

loop_
_atom_site_label
_atom_site_type_symbol
_atom_site_fract_x
_atom_site_fract_y
_atom_site_fract_z
_atom_site_charge
Zr1      Zr     0.840000000000     0.919990000000     0.054580000000     0          
O1       O      0.832100000000     0.916000000000     0.972600000000     0          
O2       O      0.000000000000     0.000000000000     0.086600000000     0          
C1       C      0.528200000000     0.960800000000     0.041400000000     0          
C2       C      0.597000000000     0.000000000000     0.000000000000     0          
C3       C      0.699000000000     0.000000000000     0.000000000000     0          
O3       O      0.723000000000     0.965000000000     0.037100000000     0          
H1       H      0.550000000000     0.930400000000     0.073500000000     0          
C4       C      0.812000000000     0.790000000000     0.224500000000     0          
C5       C      0.893500000000     0.787000000000     0.199000000000     0          
C6       C      0.901900000000     0.804000000000     0.145400000000     0          
O4       O      0.840000000000     0.830000000000     0.124000000000     0          
H2       H      0.750000000000     0.800000000000     0.205000000000     0          
C1G      C      0.567400000000     0.039200000000     0.958600000000     0          
O3G      O      0.758000000000     0.035000000000     0.962900000000     0          
H1G      H      0.619600000000     0.069600000000     0.926500000000     0          
C1L      C      0.471800000000     0.039200000000     0.958600000000     0          
C2L      C      0.403000000000     0.000000000000     0.000000000000     0          
C3L      C      0.301000000000     0.000000000000     0.000000000000     0          
O3L      O      0.277000000000     0.035000000000     0.962900000000     0          
H1L      H      0.450000000000     0.069600000000     0.926500000000     0          
C1S      C      0.432600000000     0.960800000000     0.041400000000     0          
O3S      O      0.242000000000     0.965000000000     0.037100000000     0          
H1S      H      0.380400000000     0.930400000000     0.073500000000     0          
C4O      C      0.812000000000     0.790000000000     0.275500000000     0          
C5J      C      0.893500000000     0.787000000000     0.301000000000     0          
C6J      C      0.902100000000     0.804000000000     0.354600000000     0          
O4O      O      0.840000000000     0.830000000000     0.376000000000     0          
H2O      H      0.750000000000     0.800000000000     0.295000000000     0          
C4S      C      0.978000000000     0.790000000000     0.224500000000     0          
O4S      O      0.990000000000     0.830000000000     0.124000000000     0          
H2S      H      0.050000000000     0.800000000000     0.205000000000     0          
C4J      C      0.978000000000     0.790000000000     0.275500000000     0          
O4J      O      0.990000000000     0.830000000000     0.376000000000     0          
H2J      H      0.050000000000     0.800000000000     0.295000000000     0          
Zr1B     Zr     0.080010000000     0.920010000000     0.054580000000     0          
O1B      O      0.084000000000     0.916100000000     0.972600000000     0          
C1B      C      0.039200000000     0.567400000000     0.041400000000     0          
C2B      C      0.000000000000     0.597000000000     0.000000000000     0          
C3B      C      0.000000000000     0.699000000000     0.000000000000     0          
O3B      O      0.035000000000     0.758000000000     0.037100000000     0          
H1B      H      0.069600000000     0.619600000000     0.073500000000     0          
C4B      C      0.210000000000     0.022000000000     0.224500000000     0          
C5B      C      0.213000000000     0.106500000000     0.199000000000     0          
C6B      C      0.196000000000     0.097900000000     0.145400000000     0          
O4B      O      0.170000000000     0.010000000000     0.124000000000     0          
H2B      H      0.200000000000     0.950000000000     0.205000000000     0          
C1I      C      0.960800000000     0.528200000000     0.958600000000     0          
O3I      O      0.965000000000     0.723000000000     0.962900000000     0          
H1I      H      0.930400000000     0.550000000000     0.926500000000     0          
C1N      C      0.960800000000     0.432600000000     0.958600000000     0          
C2N      C      0.000000000000     0.403000000000     0.000000000000     0          
C3N      C      0.000000000000     0.301000000000     0.000000000000     0          
O3N      O      0.965000000000     0.242000000000     0.962900000000     0          
H1N      H      0.930400000000     0.380400000000     0.926500000000     0          
C1U      C      0.039200000000     0.471800000000     0.041400000000     0          
O3U      O      0.035000000000     0.277000000000     0.037100000000     0          
H1U      H      0.069600000000     0.450000000000     0.073500000000     0          
C4Q      C      0.210000000000     0.022000000000     0.275500000000     0          
C5F      C      0.213000000000     0.106500000000     0.301000000000     0          
C6F      C      0.196000000000     0.098100000000     0.354600000000     0          
O4Q      O      0.170000000000     0.010000000000     0.376000000000     0          
H2Q      H      0.200000000000     0.950000000000     0.295000000000     0          
C4U      C      0.210000000000     0.188000000000     0.224500000000     0          
O4U      O      0.170000000000     0.160000000000     0.124000000000     0          
H2U      H      0.200000000000     0.250000000000     0.205000000000     0          
C4F      C      0.210000000000     0.188000000000     0.275500000000     0          
O4F      O      0.170000000000     0.160000000000     0.376000000000     0          
H2F      H      0.200000000000     0.250000000000     0.295000000000     0          
Zr1D     Zr     0.079990000000     0.160000000000     0.054580000000     0          
O1D      O      0.083900000000     0.167900000000     0.972600000000     0          
C1D      C      0.432600000000     0.471800000000     0.041400000000     0          
C2D      C      0.403000000000     0.403000000000     0.000000000000     0          
C3D      C      0.301000000000     0.301000000000     0.000000000000     0          
O3D      O      0.242000000000     0.277000000000     0.037100000000     0          
H1D      H      0.380400000000     0.450000000000     0.073500000000     0          
C4D      C      0.978000000000     0.188000000000     0.224500000000     0          
C5D      C      0.893500000000     0.106500000000     0.199000000000     0          
C6D      C      0.902100000000     0.098100000000     0.145400000000     0          
O4D      O      0.990000000000     0.160000000000     0.124000000000     0          
H2D      H      0.050000000000     0.250000000000     0.205000000000     0          
C1K      C      0.471800000000     0.432600000000     0.958600000000     0          
O3K      O      0.277000000000     0.242000000000     0.962900000000     0          
H1K      H      0.450000000000     0.380400000000     0.926500000000     0          
C1P      C      0.567400000000     0.528200000000     0.958600000000     0          
C2P      C      0.597000000000     0.597000000000     0.000000000000     0          
C3P      C      0.699000000000     0.699000000000     0.000000000000     0          
O3P      O      0.758000000000     0.723000000000     0.962900000000     0          
H1P      H      0.619600000000     0.550000000000     0.926500000000     0          
C1W      C      0.528200000000     0.567400000000     0.041400000000     0          
O3W      O      0.723000000000     0.758000000000     0.037100000000     0          
H1W      H      0.550000000000     0.619600000000     0.073500000000     0          
C4M      C      0.978000000000     0.188000000000     0.275500000000     0          
C5H      C      0.893500000000     0.106500000000     0.301000000000     0          
C6H      C      0.901900000000     0.097900000000     0.354600000000     0          
O4M      O      0.990000000000     0.160000000000     0.376000000000     0          
H2M      H      0.050000000000     0.250000000000     0.295000000000     0          
C4W      C      0.812000000000     0.022000000000     0.224500000000     0          
O4W      O      0.840000000000     0.010000000000     0.124000000000     0          
H2W      H      0.750000000000     0.950000000000     0.205000000000     0          
C4H      C      0.812000000000     0.022000000000     0.275500000000     0          
O4H      O      0.840000000000     0.010000000000     0.376000000000     0          
H2H      H      0.750000000000     0.950000000000     0.295000000000     0          
Zr1F     Zr     0.080010000000     0.160000000000     0.445420000000     0          
O1F      O      0.084000000000     0.167900000000     0.527400000000     0          
Zr1H     Zr     0.840000000000     0.920010000000     0.445420000000     0          
O1H      O      0.832100000000     0.916100000000     0.527400000000     0          
O2F      O      0.000000000000     0.000000000000     0.413400000000     0          
Zr1J     Zr     0.079990000000     0.919990000000     0.445420000000     0          
O1J      O      0.083900000000     0.916000000000     0.527400000000     0          
Zr1A     Zr     0.920010000000     0.840000000000     0.554580000000     0          
Zr1C     Zr     0.160000000000     0.080010000000     0.554580000000     0          
Zr1E     Zr     0.919990000000     0.079990000000     0.554580000000     0          
Zr1G     Zr     0.920010000000     0.080010000000     0.945420000000     0          
Zr1I     Zr     0.919990000000     0.840000000000     0.945420000000     0          
Zr1K     Zr     0.160000000000     0.079990000000     0.945420000000     0          
O1A      O      0.916100000000     0.832100000000     0.472600000000     0          
O1C      O      0.167900000000     0.084000000000     0.472600000000     0          
O1E      O      0.916000000000     0.083900000000     0.472600000000     0          
O1G      O      0.916100000000     0.084000000000     0.027400000000     0          
O1I      O      0.916000000000     0.832100000000     0.027400000000     0          
O1K      O      0.167900000000     0.083900000000     0.027400000000     0          
O3F      O      0.035000000000     0.277000000000     0.462900000000     0          
O3H      O      0.723000000000     0.758000000000     0.462900000000     0          
O3J      O      0.242000000000     0.965000000000     0.462900000000     0          
O3M      O      0.242000000000     0.277000000000     0.462900000000     0          
O3O      O      0.723000000000     0.965000000000     0.462900000000     0          
O3Q      O      0.035000000000     0.758000000000     0.462900000000     0          
O2       O      0.000000000000     0.000000000000     0.586600000000     0          
C1       C      0.567400000000     0.528200000000     0.541400000000     0          
C2       C      0.597000000000     0.597000000000     0.500000000000     0          
C3       C      0.699000000000     0.699000000000     0.500000000000     0          
O3       O      0.758000000000     0.723000000000     0.537100000000     0          
H1       H      0.619600000000     0.550000000000     0.573500000000     0          
C4       C      0.022000000000     0.812000000000     0.724500000000     0          
C5       C      0.106500000000     0.893500000000     0.699000000000     0          
C6       C      0.097900000000     0.901900000000     0.645400000000     0          
O4       O      0.010000000000     0.840000000000     0.624000000000     0          
H2       H      0.950000000000     0.750000000000     0.705000000000     0          
C1G      C      0.528200000000     0.567400000000     0.458600000000     0          
H1G      H      0.550000000000     0.619600000000     0.426500000000     0          
C1L      C      0.432600000000     0.471800000000     0.458600000000     0          
C2L      C      0.403000000000     0.403000000000     0.500000000000     0          
C3L      C      0.301000000000     0.301000000000     0.500000000000     0          
H1L      H      0.380400000000     0.450000000000     0.426500000000     0          
C1S      C      0.471800000000     0.432600000000     0.541400000000     0          
O3S      O      0.277000000000     0.242000000000     0.537100000000     0          
H1S      H      0.450000000000     0.380400000000     0.573500000000     0          
C4O      C      0.022000000000     0.812000000000     0.775500000000     0          
C5J      C      0.106500000000     0.893500000000     0.801000000000     0          
C6J      C      0.098100000000     0.902100000000     0.854600000000     0          
O4O      O      0.010000000000     0.840000000000     0.876000000000     0          
H2O      H      0.950000000000     0.750000000000     0.795000000000     0          
C4S      C      0.188000000000     0.978000000000     0.724500000000     0          
O4S      O      0.160000000000     0.990000000000     0.624000000000     0          
H2S      H      0.250000000000     0.050000000000     0.705000000000     0          
C4J      C      0.188000000000     0.978000000000     0.775500000000     0          
O4J      O      0.160000000000     0.990000000000     0.876000000000     0          
H2J      H      0.250000000000     0.050000000000     0.795000000000     0          
C1B      C      0.471800000000     0.039200000000     0.541400000000     0          
C2B      C      0.403000000000     0.000000000000     0.500000000000     0          
C3B      C      0.301000000000     0.000000000000     0.500000000000     0          
O3B      O      0.277000000000     0.035000000000     0.537100000000     0          
H1B      H      0.450000000000     0.069600000000     0.573500000000     0          
C4B      C      0.188000000000     0.210000000000     0.724500000000     0          
C5B      C      0.106500000000     0.213000000000     0.699000000000     0          
C6B      C      0.098100000000     0.196000000000     0.645400000000     0          
O4B      O      0.160000000000     0.170000000000     0.624000000000     0          
H2B      H      0.250000000000     0.200000000000     0.705000000000     0          
C1I      C      0.432600000000     0.960800000000     0.458600000000     0          
H1I      H      0.380400000000     0.930400000000     0.426500000000     0          
C1N      C      0.528200000000     0.960800000000     0.458600000000     0          
C2N      C      0.597000000000     0.000000000000     0.500000000000     0          
C3N      C      0.699000000000     0.000000000000     0.500000000000     0          
H1N      H      0.550000000000     0.930400000000     0.426500000000     0          
C1U      C      0.567400000000     0.039200000000     0.541400000000     0          
O3U      O      0.758000000000     0.035000000000     0.537100000000     0          
H1U      H      0.619600000000     0.069600000000     0.573500000000     0          
C4Q      C      0.188000000000     0.210000000000     0.775500000000     0          
C5F      C      0.106500000000     0.213000000000     0.801000000000     0          
C6F      C      0.097900000000     0.196000000000     0.854600000000     0          
O4Q      O      0.160000000000     0.170000000000     0.876000000000     0          
H2Q      H      0.250000000000     0.200000000000     0.795000000000     0          
C4U      C      0.022000000000     0.210000000000     0.724500000000     0          
O4U      O      0.010000000000     0.170000000000     0.624000000000     0          
H2U      H      0.950000000000     0.200000000000     0.705000000000     0          
C4F      C      0.022000000000     0.210000000000     0.775500000000     0          
O4F      O      0.010000000000     0.170000000000     0.876000000000     0          
H2F      H      0.950000000000     0.200000000000     0.795000000000     0          
C1D      C      0.960800000000     0.432600000000     0.541400000000     0          
C2D      C      0.000000000000     0.403000000000     0.500000000000     0          
C3D      C      1.000000000000     0.301000000000     0.500000000000     0          
O3D      O      0.965000000000     0.242000000000     0.537100000000     0          
H1D      H      0.930400000000     0.380400000000     0.573500000000     0          
C4D      C      0.790000000000     0.978000000000     0.724500000000     0          
C5D      C      0.787000000000     0.893500000000     0.699000000000     0          
C6D      C      0.804000000000     0.902100000000     0.645400000000     0          
O4D      O      0.830000000000     0.990000000000     0.624000000000     0          
H2D      H      0.800000000000     0.050000000000     0.705000000000     0          
C1K      C      0.039200000000     0.471800000000     0.458600000000     0          
H1K      H      0.069600000000     0.450000000000     0.426500000000     0          
C1P      C      0.039200000000     0.567400000000     0.458600000000     0          
C2P      C      0.000000000000     0.597000000000     0.500000000000     0          
C3P      C      1.000000000000     0.699000000000     0.500000000000     0          
H1P      H      0.069600000000     0.619600000000     0.426500000000     0          
C1W      C      0.960800000000     0.528200000000     0.541400000000     0          
O3W      O      0.965000000000     0.723000000000     0.537100000000     0          
H1W      H      0.930400000000     0.550000000000     0.573500000000     0          
C4M      C      0.790000000000     0.978000000000     0.775500000000     0          
C5H      C      0.787000000000     0.893500000000     0.801000000000     0          
C6H      C      0.804000000000     0.901900000000     0.854600000000     0          
O4M      O      0.830000000000     0.990000000000     0.876000000000     0          
H2M      H      0.800000000000     0.050000000000     0.795000000000     0          
C4W      C      0.790000000000     0.812000000000     0.724500000000     0          
O4W      O      0.830000000000     0.840000000000     0.624000000000     0          
H2W      H      0.800000000000     0.750000000000     0.705000000000     0          
C4H      C      0.790000000000     0.812000000000     0.775500000000     0          
O4H      O      0.830000000000     0.840000000000     0.876000000000     0          
H2H      H      0.800000000000     0.750000000000     0.795000000000     0          
O2F      O      0.000000000000     0.000000000000     0.913400000000     0          


