data_QEMGOH

_audit_creation_method RASPA-1.0
_audit_creation_date 2020-11-2
_audit_author_name 'Rocio Bueno-Perez'

_cell_length_a    17.526
_cell_length_b    17.526
_cell_length_c    22.893
_cell_angle_alpha 90
_cell_angle_beta  90
_cell_angle_gamma 90
_cell_volume      7031.83

_symmetry_cell_setting          tetragonal
_symmetry_space_group_name_Hall 'P 1'
_symmetry_space_group_name_H-M  'P 1'
_symmetry_Int_Tables_number     1

_symmetry_equiv_pos_as_xyz 'x,y,z'

loop_
_atom_site_label
_atom_site_type_symbol
_atom_site_fract_x
_atom_site_fract_y
_atom_site_fract_z
_atom_site_charge
C1       C      0.663200000000     0.706000000000     0.714100000000     0          
C2       C      0.627000000000     0.672000000000     0.754200000000     0          
O1       O      0.500700000000     0.599000000000     0.948100000000     0          
O2       O      0.642200000000     0.640900000000     0.910700000000     0          
O3       O      0.574700000000     0.574800000000     0.842200000000     0          
C3       C      0.625400000000     0.625500000000     0.856600000000     0          
C4       C      0.664000000000     0.663800000000     0.811600000000     0          
C5       C      0.758500000000     0.756200000000     0.777300000000     0          
C6       C      0.720800000000     0.718400000000     0.824200000000     0          
H2       H      0.736070000000     0.731840000000     0.871500000000     0          
O7       O      0.544000000000     0.672000000000     0.647000000000     0          
O14?     O      0.605000000000     0.784000000000     0.619000000000     0          
O15?     O      0.693000000000     0.659400000000     0.600200000000     0          
S4?      S      0.626500000000     0.702000000000     0.640400000000     0          
H        H      0.567380000000     0.648680000000     0.745380000000     0          
Zr1      Zr     0.500000000000     0.500000000000     0.893280000000     0          
Zr2      Zr     0.601440000000     0.601470000000     0.000000000000     0          
C1       C      0.294000000000     0.663200000000     0.714100000000     0          
C2       C      0.328000000000     0.627000000000     0.754200000000     0          
O1       O      0.401000000000     0.500700000000     0.948100000000     0          
O2       O      0.359100000000     0.642200000000     0.910700000000     0          
O3       O      0.425200000000     0.574700000000     0.842200000000     0          
C3       C      0.374500000000     0.625400000000     0.856600000000     0          
C4       C      0.336200000000     0.664000000000     0.811600000000     0          
C5       C      0.243800000000     0.758500000000     0.777300000000     0          
C6       C      0.281600000000     0.720800000000     0.824200000000     0          
H2       H      0.268160000000     0.736070000000     0.871500000000     0          
O7       O      0.328000000000     0.544000000000     0.647000000000     0          
O14?     O      0.216000000000     0.605000000000     0.619000000000     0          
O15?     O      0.340600000000     0.693000000000     0.600200000000     0          
S4?      S      0.298000000000     0.626500000000     0.640400000000     0          
H        H      0.351320000000     0.567380000000     0.745380000000     0          
Zr2      Zr     0.398530000000     0.601440000000     0.000000000000     0          
C1       C      0.336800000000     0.294000000000     0.714100000000     0          
C2       C      0.373000000000     0.328000000000     0.754200000000     0          
O1       O      0.499300000000     0.401000000000     0.948100000000     0          
O2       O      0.357800000000     0.359100000000     0.910700000000     0          
O3       O      0.425300000000     0.425200000000     0.842200000000     0          
C3       C      0.374600000000     0.374500000000     0.856600000000     0          
C4       C      0.336000000000     0.336200000000     0.811600000000     0          
C5       C      0.241500000000     0.243800000000     0.777300000000     0          
C6       C      0.279200000000     0.281600000000     0.824200000000     0          
H2       H      0.263930000000     0.268160000000     0.871500000000     0          
O7       O      0.456000000000     0.328000000000     0.647000000000     0          
O14?     O      0.395000000000     0.216000000000     0.619000000000     0          
O15?     O      0.307000000000     0.340600000000     0.600200000000     0          
S4?      S      0.373500000000     0.298000000000     0.640400000000     0          
H        H      0.432620000000     0.351320000000     0.745380000000     0          
Zr2      Zr     0.398560000000     0.398530000000     0.000000000000     0          
C1       C      0.706000000000     0.336800000000     0.714100000000     0          
C2       C      0.672000000000     0.373000000000     0.754200000000     0          
O1       O      0.599000000000     0.499300000000     0.948100000000     0          
O2       O      0.640900000000     0.357800000000     0.910700000000     0          
O3       O      0.574800000000     0.425300000000     0.842200000000     0          
C3       C      0.625500000000     0.374600000000     0.856600000000     0          
C4       C      0.663800000000     0.336000000000     0.811600000000     0          
C5       C      0.756200000000     0.241500000000     0.777300000000     0          
C6       C      0.718400000000     0.279200000000     0.824200000000     0          
H2       H      0.731840000000     0.263930000000     0.871500000000     0          
O7       O      0.672000000000     0.456000000000     0.647000000000     0          
O14?     O      0.784000000000     0.395000000000     0.619000000000     0          
O15?     O      0.659400000000     0.307000000000     0.600200000000     0          
S4?      S      0.702000000000     0.373500000000     0.640400000000     0          
H        H      0.648680000000     0.432620000000     0.745380000000     0          
Zr2      Zr     0.601470000000     0.398560000000     0.000000000000     0          
C1       C      0.336800000000     0.294000000000     0.285900000000     0          
C2       C      0.373000000000     0.328000000000     0.245800000000     0          
O1       O      0.499300000000     0.401000000000     0.051900000000     0          
O2       O      0.357800000000     0.359100000000     0.089300000000     0          
O3       O      0.425300000000     0.425200000000     0.157800000000     0          
C3       C      0.374600000000     0.374500000000     0.143400000000     0          
C4       C      0.336000000000     0.336200000000     0.188400000000     0          
C5       C      0.241500000000     0.243800000000     0.222700000000     0          
C6       C      0.279200000000     0.281600000000     0.175800000000     0          
H2       H      0.263930000000     0.268160000000     0.128500000000     0          
O7       O      0.456000000000     0.328000000000     0.353000000000     0          
O14?     O      0.395000000000     0.216000000000     0.381000000000     0          
O15?     O      0.307000000000     0.340600000000     0.399800000000     0          
S4?      S      0.373500000000     0.298000000000     0.359600000000     0          
H        H      0.432620000000     0.351320000000     0.254620000000     0          
Zr1      Zr     0.500000000000     0.500000000000     0.106720000000     0          
C1       C      0.706000000000     0.336800000000     0.285900000000     0          
C2       C      0.672000000000     0.373000000000     0.245800000000     0          
O1       O      0.599000000000     0.499300000000     0.051900000000     0          
O2       O      0.640900000000     0.357800000000     0.089300000000     0          
O3       O      0.574800000000     0.425300000000     0.157800000000     0          
C3       C      0.625500000000     0.374600000000     0.143400000000     0          
C4       C      0.663800000000     0.336000000000     0.188400000000     0          
C5       C      0.756200000000     0.241500000000     0.222700000000     0          
C6       C      0.718400000000     0.279200000000     0.175800000000     0          
H2       H      0.731840000000     0.263930000000     0.128500000000     0          
O7       O      0.672000000000     0.456000000000     0.353000000000     0          
O14?     O      0.784000000000     0.395000000000     0.381000000000     0          
O15?     O      0.659400000000     0.307000000000     0.399800000000     0          
S4?      S      0.702000000000     0.373500000000     0.359600000000     0          
H        H      0.648680000000     0.432620000000     0.254620000000     0          
C1       C      0.663200000000     0.706000000000     0.285900000000     0          
C2       C      0.627000000000     0.672000000000     0.245800000000     0          
O1       O      0.500700000000     0.599000000000     0.051900000000     0          
O2       O      0.642200000000     0.640900000000     0.089300000000     0          
O3       O      0.574700000000     0.574800000000     0.157800000000     0          
C3       C      0.625400000000     0.625500000000     0.143400000000     0          
C4       C      0.664000000000     0.663800000000     0.188400000000     0          
C5       C      0.758500000000     0.756200000000     0.222700000000     0          
C6       C      0.720800000000     0.718400000000     0.175800000000     0          
H2       H      0.736070000000     0.731840000000     0.128500000000     0          
O7       O      0.544000000000     0.672000000000     0.353000000000     0          
O14?     O      0.605000000000     0.784000000000     0.381000000000     0          
O15?     O      0.693000000000     0.659400000000     0.399800000000     0          
S4?      S      0.626500000000     0.702000000000     0.359600000000     0          
H        H      0.567380000000     0.648680000000     0.254620000000     0          
C1       C      0.294000000000     0.663200000000     0.285900000000     0          
C2       C      0.328000000000     0.627000000000     0.245800000000     0          
O1       O      0.401000000000     0.500700000000     0.051900000000     0          
O2       O      0.359100000000     0.642200000000     0.089300000000     0          
O3       O      0.425200000000     0.574700000000     0.157800000000     0          
C3       C      0.374500000000     0.625400000000     0.143400000000     0          
C4       C      0.336200000000     0.664000000000     0.188400000000     0          
C5       C      0.243800000000     0.758500000000     0.222700000000     0          
C6       C      0.281600000000     0.720800000000     0.175800000000     0          
H2       H      0.268160000000     0.736070000000     0.128500000000     0          
O7       O      0.328000000000     0.544000000000     0.353000000000     0          
O14?     O      0.216000000000     0.605000000000     0.381000000000     0          
O15?     O      0.340600000000     0.693000000000     0.399800000000     0          
S4?      S      0.298000000000     0.626500000000     0.359600000000     0          
H        H      0.351320000000     0.567380000000     0.254620000000     0          
C1       C      0.163200000000     0.206000000000     0.214100000000     0          
C2       C      0.127000000000     0.172000000000     0.254200000000     0          
O1       O      0.000700000000     0.099000000000     0.448100000000     0          
O2       O      0.142200000000     0.140900000000     0.410700000000     0          
O3       O      0.074700000000     0.074800000000     0.342200000000     0          
C3       C      0.125400000000     0.125500000000     0.356600000000     0          
C4       C      0.164000000000     0.163800000000     0.311600000000     0          
C5       C      0.258500000000     0.256200000000     0.277300000000     0          
C6       C      0.220800000000     0.218400000000     0.324200000000     0          
H2       H      0.236070000000     0.231840000000     0.371500000000     0          
O7       O      0.044000000000     0.172000000000     0.147000000000     0          
O14?     O      0.105000000000     0.284000000000     0.119000000000     0          
O15?     O      0.193000000000     0.159400000000     0.100200000000     0          
S4?      S      0.126500000000     0.202000000000     0.140400000000     0          
H        H      0.067380000000     0.148680000000     0.245380000000     0          
Zr1      Zr     0.000000000000     0.000000000000     0.393280000000     0          
Zr2      Zr     0.101440000000     0.101470000000     0.500000000000     0          
C1       C      0.794000000000     0.163200000000     0.214100000000     0          
C2       C      0.828000000000     0.127000000000     0.254200000000     0          
O1       O      0.901000000000     0.000700000000     0.448100000000     0          
O2       O      0.859100000000     0.142200000000     0.410700000000     0          
O3       O      0.925200000000     0.074700000000     0.342200000000     0          
C3       C      0.874500000000     0.125400000000     0.356600000000     0          
C4       C      0.836200000000     0.164000000000     0.311600000000     0          
C5       C      0.743800000000     0.258500000000     0.277300000000     0          
C6       C      0.781600000000     0.220800000000     0.324200000000     0          
H2       H      0.768160000000     0.236070000000     0.371500000000     0          
O7       O      0.828000000000     0.044000000000     0.147000000000     0          
O14?     O      0.716000000000     0.105000000000     0.119000000000     0          
O15?     O      0.840600000000     0.193000000000     0.100200000000     0          
S4?      S      0.798000000000     0.126500000000     0.140400000000     0          
H        H      0.851320000000     0.067380000000     0.245380000000     0          
Zr2      Zr     0.898530000000     0.101440000000     0.500000000000     0          
C1       C      0.836800000000     0.794000000000     0.214100000000     0          
C2       C      0.873000000000     0.828000000000     0.254200000000     0          
O1       O      0.999300000000     0.901000000000     0.448100000000     0          
O2       O      0.857800000000     0.859100000000     0.410700000000     0          
O3       O      0.925300000000     0.925200000000     0.342200000000     0          
C3       C      0.874600000000     0.874500000000     0.356600000000     0          
C4       C      0.836000000000     0.836200000000     0.311600000000     0          
C5       C      0.741500000000     0.743800000000     0.277300000000     0          
C6       C      0.779200000000     0.781600000000     0.324200000000     0          
H2       H      0.763930000000     0.768160000000     0.371500000000     0          
O7       O      0.956000000000     0.828000000000     0.147000000000     0          
O14?     O      0.895000000000     0.716000000000     0.119000000000     0          
O15?     O      0.807000000000     0.840600000000     0.100200000000     0          
S4?      S      0.873500000000     0.798000000000     0.140400000000     0          
H        H      0.932620000000     0.851320000000     0.245380000000     0          
Zr2      Zr     0.898560000000     0.898530000000     0.500000000000     0          
C1       C      0.206000000000     0.836800000000     0.214100000000     0          
C2       C      0.172000000000     0.873000000000     0.254200000000     0          
O1       O      0.099000000000     0.999300000000     0.448100000000     0          
O2       O      0.140900000000     0.857800000000     0.410700000000     0          
O3       O      0.074800000000     0.925300000000     0.342200000000     0          
C3       C      0.125500000000     0.874600000000     0.356600000000     0          
C4       C      0.163800000000     0.836000000000     0.311600000000     0          
C5       C      0.256200000000     0.741500000000     0.277300000000     0          
C6       C      0.218400000000     0.779200000000     0.324200000000     0          
H2       H      0.231840000000     0.763930000000     0.371500000000     0          
O7       O      0.172000000000     0.956000000000     0.147000000000     0          
O14?     O      0.284000000000     0.895000000000     0.119000000000     0          
O15?     O      0.159400000000     0.807000000000     0.100200000000     0          
S4?      S      0.202000000000     0.873500000000     0.140400000000     0          
H        H      0.148680000000     0.932620000000     0.245380000000     0          
Zr2      Zr     0.101470000000     0.898560000000     0.500000000000     0          
C1       C      0.836800000000     0.794000000000     0.785900000000     0          
C2       C      0.873000000000     0.828000000000     0.745800000000     0          
O1       O      0.999300000000     0.901000000000     0.551900000000     0          
O2       O      0.857800000000     0.859100000000     0.589300000000     0          
O3       O      0.925300000000     0.925200000000     0.657800000000     0          
C3       C      0.874600000000     0.874500000000     0.643400000000     0          
C4       C      0.836000000000     0.836200000000     0.688400000000     0          
C5       C      0.741500000000     0.743800000000     0.722700000000     0          
C6       C      0.779200000000     0.781600000000     0.675800000000     0          
H2       H      0.763930000000     0.768160000000     0.628500000000     0          
O7       O      0.956000000000     0.828000000000     0.853000000000     0          
O14?     O      0.895000000000     0.716000000000     0.881000000000     0          
O15?     O      0.807000000000     0.840600000000     0.899800000000     0          
S4?      S      0.873500000000     0.798000000000     0.859600000000     0          
H        H      0.932620000000     0.851320000000     0.754620000000     0          
Zr1      Zr     0.000000000000     0.000000000000     0.606720000000     0          
C1       C      0.206000000000     0.836800000000     0.785900000000     0          
C2       C      0.172000000000     0.873000000000     0.745800000000     0          
O1       O      0.099000000000     0.999300000000     0.551900000000     0          
O2       O      0.140900000000     0.857800000000     0.589300000000     0          
O3       O      0.074800000000     0.925300000000     0.657800000000     0          
C3       C      0.125500000000     0.874600000000     0.643400000000     0          
C4       C      0.163800000000     0.836000000000     0.688400000000     0          
C5       C      0.256200000000     0.741500000000     0.722700000000     0          
C6       C      0.218400000000     0.779200000000     0.675800000000     0          
H2       H      0.231840000000     0.763930000000     0.628500000000     0          
O7       O      0.172000000000     0.956000000000     0.853000000000     0          
O14?     O      0.284000000000     0.895000000000     0.881000000000     0          
O15?     O      0.159400000000     0.807000000000     0.899800000000     0          
S4?      S      0.202000000000     0.873500000000     0.859600000000     0          
H        H      0.148680000000     0.932620000000     0.754620000000     0          
C1       C      0.163200000000     0.206000000000     0.785900000000     0          
C2       C      0.127000000000     0.172000000000     0.745800000000     0          
O1       O      0.000700000000     0.099000000000     0.551900000000     0          
O2       O      0.142200000000     0.140900000000     0.589300000000     0          
O3       O      0.074700000000     0.074800000000     0.657800000000     0          
C3       C      0.125400000000     0.125500000000     0.643400000000     0          
C4       C      0.164000000000     0.163800000000     0.688400000000     0          
C5       C      0.258500000000     0.256200000000     0.722700000000     0          
C6       C      0.220800000000     0.218400000000     0.675800000000     0          
H2       H      0.236070000000     0.231840000000     0.628500000000     0          
O7       O      0.044000000000     0.172000000000     0.853000000000     0          
O14?     O      0.105000000000     0.284000000000     0.881000000000     0          
O15?     O      0.193000000000     0.159400000000     0.899800000000     0          
S4?      S      0.126500000000     0.202000000000     0.859600000000     0          
H        H      0.067380000000     0.148680000000     0.754620000000     0          
C1       C      0.794000000000     0.163200000000     0.785900000000     0          
C2       C      0.828000000000     0.127000000000     0.745800000000     0          
O1       O      0.901000000000     0.000700000000     0.551900000000     0          
O2       O      0.859100000000     0.142200000000     0.589300000000     0          
O3       O      0.925200000000     0.074700000000     0.657800000000     0          
C3       C      0.874500000000     0.125400000000     0.643400000000     0          
C4       C      0.836200000000     0.164000000000     0.688400000000     0          
C5       C      0.743800000000     0.258500000000     0.722700000000     0          
C6       C      0.781600000000     0.220800000000     0.675800000000     0          
H2       H      0.768160000000     0.236070000000     0.628500000000     0          
O7       O      0.828000000000     0.044000000000     0.853000000000     0          
O14?     O      0.716000000000     0.105000000000     0.881000000000     0          
O15?     O      0.840600000000     0.193000000000     0.899800000000     0          
S4?      S      0.798000000000     0.126500000000     0.859600000000     0          
H        H      0.851320000000     0.067380000000     0.754620000000     0          


