data_QEMGIB

_audit_creation_method RASPA-1.0
_audit_creation_date 2020-11-2
_audit_author_name 'Rocio Bueno-Perez'

_cell_length_a    17.7174
_cell_length_b    17.7174
_cell_length_c    22.4865
_cell_angle_alpha 90
_cell_angle_beta  90
_cell_angle_gamma 90
_cell_volume      7058.65

_symmetry_cell_setting          triclinic
_symmetry_space_group_name_Hall 'P 1'
_symmetry_space_group_name_H-M  'P 1'
_symmetry_Int_Tables_number     1

_symmetry_equiv_pos_as_xyz 'x,y,z'

loop_
_atom_site_label
_atom_site_type_symbol
_atom_site_fract_x
_atom_site_fract_y
_atom_site_fract_z
_atom_site_charge
C1       C      0.133800000000     0.164900000000     0.251200000000     0          
O2       O      0.074700000000     0.074300000000     0.339700000000     0          
O3       O      0.139600000000     0.138600000000     0.410300000000     0          
C4       C      0.121700000000     0.124000000000     0.356900000000     0          
C5       C      0.164600000000     0.164900000000     0.309300000000     0          
C6       C      0.256800000000     0.258500000000     0.279300000000     0          
C7       C      0.172200000000     0.208400000000     0.204400000000     0          
S8       S      0.162700000000     0.169900000000     0.127600000000     0          
O9       O      0.116800000000     0.097400000000     0.130400000000     0          
O10      O      0.130800000000     0.248600000000     0.106000000000     0          
C11      C      0.207400000000     0.226400000000     0.325200000000     0          
O12      O      0.240000000000     0.140600000000     0.101500000000     0          
O13      O      0.999800000000     0.111500000000     0.441000000000     0          
H14      H      0.794190000000     0.747500000000     0.628480000000     0          
O15      O      0.574700000000     0.574300000000     0.839700000000     0          
O16      O      0.639600000000     0.638600000000     0.910300000000     0          
C17      C      0.621700000000     0.624000000000     0.856900000000     0          
C18      C      0.664600000000     0.664900000000     0.809300000000     0          
C19      C      0.756800000000     0.758500000000     0.779300000000     0          
C20      C      0.665000000000     0.630900000000     0.750200000000     0          
C21      C      0.707400000000     0.726400000000     0.825200000000     0          
O22      O      0.677000000000     0.550000000000     0.642000000000     0          
O23      O      0.780200000000     0.617000000000     0.621000000000     0          
S24      S      0.694900000000     0.639200000000     0.630000000000     0          
O25      O      0.661900000000     0.711400000000     0.597600000000     0          
C26      C      0.705200000000     0.674000000000     0.706200000000     0          
O27      O      0.499800000000     0.611500000000     0.941000000000     0          
H28      H      0.294190000000     0.247500000000     0.128480000000     0          
O29      O      0.925300000000     0.925700000000     0.339700000000     0          
O30      O      0.860400000000     0.861400000000     0.410300000000     0          
C31      C      0.878300000000     0.876000000000     0.356900000000     0          
C32      C      0.835400000000     0.835100000000     0.309300000000     0          
C33      C      0.743200000000     0.741500000000     0.279300000000     0          
O34      O      0.883200000000     0.902600000000     0.130400000000     0          
C35      C      0.835000000000     0.869100000000     0.250200000000     0          
C36      C      0.792600000000     0.773600000000     0.325200000000     0          
O37      O      0.719800000000     0.883000000000     0.121000000000     0          
S38      S      0.805100000000     0.860800000000     0.130000000000     0          
O39      O      0.838100000000     0.788600000000     0.097600000000     0          
C40      C      0.794800000000     0.826000000000     0.206200000000     0          
O41      O      0.000200000000     0.888500000000     0.441000000000     0          
H42      H      0.205810000000     0.252500000000     0.628480000000     0          
O43      O      0.425300000000     0.425700000000     0.839700000000     0          
O44      O      0.360400000000     0.361400000000     0.910300000000     0          
C45      C      0.378300000000     0.376000000000     0.856900000000     0          
C46      C      0.335400000000     0.335100000000     0.809300000000     0          
C47      C      0.243200000000     0.241500000000     0.779300000000     0          
O48      O      0.383200000000     0.402600000000     0.630400000000     0          
C49      C      0.335000000000     0.369100000000     0.750200000000     0          
C50      C      0.292600000000     0.273600000000     0.825200000000     0          
O51      O      0.219800000000     0.383000000000     0.621000000000     0          
S52      S      0.305100000000     0.360800000000     0.630000000000     0          
O53      O      0.338100000000     0.288600000000     0.597600000000     0          
C54      C      0.294800000000     0.326000000000     0.706200000000     0          
O55      O      0.500200000000     0.388500000000     0.941000000000     0          
H56      H      0.705810000000     0.752500000000     0.128480000000     0          
O57      O      0.925700000000     0.074700000000     0.339700000000     0          
O58      O      0.861400000000     0.139600000000     0.410300000000     0          
C59      C      0.876000000000     0.121700000000     0.356900000000     0          
C60      C      0.835100000000     0.164600000000     0.309300000000     0          
C61      C      0.741500000000     0.256800000000     0.279300000000     0          
C62      C      0.869100000000     0.165000000000     0.250200000000     0          
C63      C      0.773600000000     0.207400000000     0.325200000000     0          
O64      O      0.950000000000     0.177000000000     0.142000000000     0          
O65      O      0.883000000000     0.280200000000     0.121000000000     0          
S66      S      0.860800000000     0.194900000000     0.130000000000     0          
O67      O      0.788600000000     0.161900000000     0.097600000000     0          
C68      C      0.826000000000     0.205200000000     0.206200000000     0          
O69      O      0.888500000000     0.999800000000     0.441000000000     0          
H70      H      0.252500000000     0.794190000000     0.628480000000     0          
O71      O      0.425700000000     0.574700000000     0.839700000000     0          
O72      O      0.361400000000     0.639600000000     0.910300000000     0          
C73      C      0.376000000000     0.621700000000     0.856900000000     0          
C74      C      0.335100000000     0.664600000000     0.809300000000     0          
C75      C      0.241500000000     0.756800000000     0.779300000000     0          
O76      O      0.402600000000     0.616800000000     0.630400000000     0          
C77      C      0.369100000000     0.665000000000     0.750200000000     0          
C78      C      0.273600000000     0.707400000000     0.825200000000     0          
O79      O      0.383000000000     0.780200000000     0.621000000000     0          
S80      S      0.360800000000     0.694900000000     0.630000000000     0          
O81      O      0.288600000000     0.661900000000     0.597600000000     0          
C82      C      0.326000000000     0.705200000000     0.706200000000     0          
O83      O      0.388500000000     0.499800000000     0.941000000000     0          
H84      H      0.752500000000     0.294190000000     0.128480000000     0          
C85      C      0.164900000000     0.866200000000     0.251200000000     0          
C86      C      0.201700000000     0.767400000000     0.327200000000     0          
O87      O      0.074300000000     0.925300000000     0.339700000000     0          
O88      O      0.138600000000     0.860400000000     0.410300000000     0          
C89      C      0.124000000000     0.878300000000     0.356900000000     0          
C90      C      0.164900000000     0.835400000000     0.309300000000     0          
C91      C      0.258500000000     0.743200000000     0.279300000000     0          
C92      C      0.208400000000     0.827800000000     0.204400000000     0          
S93      S      0.169900000000     0.837300000000     0.127600000000     0          
O94      O      0.097400000000     0.883200000000     0.130400000000     0          
O95      O      0.248600000000     0.869200000000     0.106000000000     0          
O96      O      0.140600000000     0.760000000000     0.101500000000     0          
O97      O      0.111500000000     0.000200000000     0.441000000000     0          
H98      H      0.747500000000     0.205810000000     0.628480000000     0          
C99      C      0.664900000000     0.366200000000     0.751200000000     0          
O100     O      0.574300000000     0.425300000000     0.839700000000     0          
O101     O      0.638600000000     0.360400000000     0.910300000000     0          
C102     C      0.624000000000     0.378300000000     0.856900000000     0          
C103     C      0.664900000000     0.335400000000     0.809300000000     0          
C104     C      0.758500000000     0.243200000000     0.779300000000     0          
C105     C      0.708400000000     0.327800000000     0.704400000000     0          
O106     O      0.597400000000     0.383200000000     0.630400000000     0          
O107     O      0.748600000000     0.369200000000     0.606000000000     0          
C108     C      0.726400000000     0.292600000000     0.825200000000     0          
O109     O      0.611500000000     0.500200000000     0.941000000000     0          
O110     O      0.925300000000     0.925700000000     0.660300000000     0          
O111     O      0.860400000000     0.861400000000     0.589700000000     0          
C112     C      0.878300000000     0.876000000000     0.643100000000     0          
C113     C      0.835400000000     0.835100000000     0.690700000000     0          
C114     C      0.743200000000     0.741500000000     0.720700000000     0          
C115     C      0.835000000000     0.869100000000     0.749800000000     0          
C116     C      0.792600000000     0.773600000000     0.674800000000     0          
O117     O      0.823000000000     0.950000000000     0.858000000000     0          
O118     O      0.719800000000     0.883000000000     0.879000000000     0          
S119     S      0.805100000000     0.860800000000     0.870000000000     0          
O120     O      0.838100000000     0.788600000000     0.902400000000     0          
C121     C      0.794800000000     0.826000000000     0.793800000000     0          
O122     O      0.000200000000     0.888500000000     0.559000000000     0          
H123     H      0.205810000000     0.252500000000     0.371520000000     0          
O124     O      0.425300000000     0.425700000000     0.160300000000     0          
O125     O      0.360400000000     0.361400000000     0.089700000000     0          
C126     C      0.378300000000     0.376000000000     0.143100000000     0          
C127     C      0.335400000000     0.335100000000     0.190700000000     0          
C128     C      0.243200000000     0.241500000000     0.220700000000     0          
O129     O      0.383200000000     0.402600000000     0.369600000000     0          
C130     C      0.335000000000     0.369100000000     0.249800000000     0          
C131     C      0.292600000000     0.273600000000     0.174800000000     0          
O132     O      0.219800000000     0.383000000000     0.379000000000     0          
S133     S      0.305100000000     0.360800000000     0.370000000000     0          
O134     O      0.338100000000     0.288600000000     0.402400000000     0          
C135     C      0.294800000000     0.326000000000     0.293800000000     0          
O136     O      0.500200000000     0.388500000000     0.059000000000     0          
H137     H      0.705810000000     0.752500000000     0.871520000000     0          
O138     O      0.074700000000     0.074300000000     0.660300000000     0          
O139     O      0.139600000000     0.138600000000     0.589700000000     0          
C140     C      0.121700000000     0.124000000000     0.643100000000     0          
C141     C      0.164600000000     0.164900000000     0.690700000000     0          
C142     C      0.256800000000     0.258500000000     0.720700000000     0          
C143     C      0.165000000000     0.130900000000     0.749800000000     0          
C144     C      0.207400000000     0.226400000000     0.674800000000     0          
O145     O      0.177000000000     0.050000000000     0.858000000000     0          
O146     O      0.280200000000     0.117000000000     0.879000000000     0          
S147     S      0.194900000000     0.139200000000     0.870000000000     0          
O148     O      0.161900000000     0.211400000000     0.902400000000     0          
C149     C      0.205200000000     0.174000000000     0.793800000000     0          
O150     O      0.999800000000     0.111500000000     0.559000000000     0          
H151     H      0.794190000000     0.747500000000     0.371520000000     0          
O152     O      0.574700000000     0.574300000000     0.160300000000     0          
O153     O      0.639600000000     0.638600000000     0.089700000000     0          
C154     C      0.621700000000     0.624000000000     0.143100000000     0          
C155     C      0.664600000000     0.664900000000     0.190700000000     0          
C156     C      0.756800000000     0.758500000000     0.220700000000     0          
O157     O      0.616800000000     0.597400000000     0.369600000000     0          
C158     C      0.665000000000     0.630900000000     0.249800000000     0          
C159     C      0.707400000000     0.726400000000     0.174800000000     0          
O160     O      0.780200000000     0.617000000000     0.379000000000     0          
S161     S      0.694900000000     0.639200000000     0.370000000000     0          
O162     O      0.661900000000     0.711400000000     0.402400000000     0          
C163     C      0.705200000000     0.674000000000     0.293800000000     0          
O164     O      0.499800000000     0.611500000000     0.059000000000     0          
H165     H      0.294190000000     0.247500000000     0.871520000000     0          
O166     O      0.074300000000     0.925300000000     0.660300000000     0          
O167     O      0.138600000000     0.860400000000     0.589700000000     0          
C168     C      0.124000000000     0.878300000000     0.643100000000     0          
C169     C      0.164900000000     0.835400000000     0.690700000000     0          
C170     C      0.258500000000     0.743200000000     0.720700000000     0          
C171     C      0.130900000000     0.835000000000     0.749800000000     0          
C172     C      0.226400000000     0.792600000000     0.674800000000     0          
O173     O      0.050000000000     0.823000000000     0.858000000000     0          
O174     O      0.117000000000     0.719800000000     0.879000000000     0          
S175     S      0.139200000000     0.805100000000     0.870000000000     0          
O176     O      0.211400000000     0.838100000000     0.902400000000     0          
C177     C      0.174000000000     0.794800000000     0.793800000000     0          
O178     O      0.111500000000     0.000200000000     0.559000000000     0          
H179     H      0.747500000000     0.205810000000     0.371520000000     0          
O180     O      0.574300000000     0.425300000000     0.160300000000     0          
O181     O      0.638600000000     0.360400000000     0.089700000000     0          
C182     C      0.624000000000     0.378300000000     0.143100000000     0          
C183     C      0.664900000000     0.335400000000     0.190700000000     0          
C184     C      0.758500000000     0.243200000000     0.220700000000     0          
O185     O      0.597400000000     0.383200000000     0.369600000000     0          
C186     C      0.630900000000     0.335000000000     0.249800000000     0          
C187     C      0.726400000000     0.292600000000     0.174800000000     0          
O188     O      0.617000000000     0.219800000000     0.379000000000     0          
S189     S      0.639200000000     0.305100000000     0.370000000000     0          
O190     O      0.711400000000     0.338100000000     0.402400000000     0          
C191     C      0.674000000000     0.294800000000     0.293800000000     0          
O192     O      0.611500000000     0.500200000000     0.059000000000     0          
H193     H      0.247500000000     0.705810000000     0.871520000000     0          
C194     C      0.835100000000     0.133800000000     0.748800000000     0          
O195     O      0.925700000000     0.074700000000     0.660300000000     0          
O196     O      0.861400000000     0.139600000000     0.589700000000     0          
C197     C      0.876000000000     0.121700000000     0.643100000000     0          
C198     C      0.835100000000     0.164600000000     0.690700000000     0          
C199     C      0.741500000000     0.256800000000     0.720700000000     0          
C200     C      0.791600000000     0.172200000000     0.795600000000     0          
S201     S      0.830100000000     0.162700000000     0.872400000000     0          
O202     O      0.751400000000     0.130800000000     0.894000000000     0          
C203     C      0.773600000000     0.207400000000     0.674800000000     0          
O204     O      0.950000000000     0.177000000000     0.858000000000     0          
O205     O      0.850000000000     0.070000000000     0.863000000000     0          
O206     O      0.888500000000     0.999800000000     0.559000000000     0          
C207     C      0.335100000000     0.633800000000     0.248800000000     0          
C208     C      0.298300000000     0.732600000000     0.172800000000     0          
O209     O      0.425700000000     0.574700000000     0.160300000000     0          
O210     O      0.361400000000     0.639600000000     0.089700000000     0          
C211     C      0.376000000000     0.621700000000     0.143100000000     0          
C212     C      0.335100000000     0.664600000000     0.190700000000     0          
C213     C      0.241500000000     0.756800000000     0.220700000000     0          
C214     C      0.291600000000     0.672200000000     0.295600000000     0          
S215     S      0.330100000000     0.662700000000     0.372400000000     0          
O216     O      0.402600000000     0.616800000000     0.369600000000     0          
O217     O      0.251400000000     0.630800000000     0.394000000000     0          
O218     O      0.359400000000     0.740000000000     0.398500000000     0          
O219     O      0.388500000000     0.499800000000     0.059000000000     0          
H220     H      0.752500000000     0.294190000000     0.871520000000     0          
Zr221    Zr     0.000000000000     0.000000000000     0.391190000000     0          
Zr222    Zr     0.500000000000     0.500000000000     0.891190000000     0          
Zr223    Zr     0.000000000000     0.000000000000     0.608810000000     0          
Zr224    Zr     0.500000000000     0.500000000000     0.108810000000     0          
Zr225    Zr     0.900280000000     0.099790000000     0.500000000000     0          
Zr226    Zr     0.400280000000     0.599790000000     0.000000000000     0          
Zr227    Zr     0.099720000000     0.900210000000     0.500000000000     0          
Zr228    Zr     0.599720000000     0.400210000000     0.000000000000     0          
Zr229    Zr     0.900210000000     0.900280000000     0.500000000000     0          
Zr230    Zr     0.400210000000     0.400280000000     0.000000000000     0          
Zr231    Zr     0.099790000000     0.099720000000     0.500000000000     0          
Zr232    Zr     0.599790000000     0.599720000000     0.000000000000     0          
H233     H      0.186700000000     0.739940000000     0.371500000000     0          
H234     H      0.313300000000     0.760060000000     0.128500000000     0          
H235     H      0.635030000000     0.574860000000     0.742260000000     0          
H236     H      0.631590000000     0.419820000000     0.741370000000     0          
H237     H      0.864970000000     0.925140000000     0.757740000000     0          
H238     H      0.868410000000     0.080180000000     0.758630000000     0          
H239     H      0.864970000000     0.925140000000     0.242260000000     0          
H240     H      0.635030000000     0.574860000000     0.257740000000     0          
H241     H      0.131590000000     0.919820000000     0.241370000000     0          
H242     H      0.368410000000     0.580180000000     0.258630000000     0          
H243     H      0.425140000000     0.635030000000     0.742260000000     0          
H244     H      0.074860000000     0.864970000000     0.757740000000     0          
H245     H      0.925140000000     0.135030000000     0.242260000000     0          
H246     H      0.574860000000     0.364970000000     0.257740000000     0          
S247     S      0.669900000000     0.337300000000     0.627600000000     0          
O248     O      0.640600000000     0.260000000000     0.601500000000     0          


