data_RUBLEH

_audit_creation_method RASPA-1.0
_audit_creation_date 2020-12-11
_audit_author_name 'Rocio Bueno-Perez'

_cell_length_a    24.4
_cell_length_b    24.401
_cell_length_c    14.88
_cell_angle_alpha 90
_cell_angle_beta  90
_cell_angle_gamma 90
_cell_volume      8859.32

_symmetry_cell_setting          triclinic
_symmetry_space_group_name_Hall 'P 1'
_symmetry_space_group_name_H-M  'P 1'
_symmetry_Int_Tables_number     1

_symmetry_equiv_pos_as_xyz 'x,y,z'

loop_
_atom_site_label
_atom_site_type_symbol
_atom_site_fract_x
_atom_site_fract_y
_atom_site_fract_z
_atom_site_charge
O1       O      0.054800000000     0.647250000000     0.589300000000     0          
O2       O      0.100840000000     0.582080000000     0.668500000000     0          
C3       C      0.091900000000     0.631400000000     0.642000000000     0          
C4       C      0.131660000000     0.673580000000     0.676400000000     0          
C5       C      0.170600000000     0.660310000000     0.741000000000     0          
H6       H      0.171200000000     0.624600000000     0.766400000000     0          
C7       C      0.208600000000     0.699340000000     0.768400000000     0          
H8       H      0.235300000000     0.690100000000     0.812300000000     0          
C9       C      0.168700000000     0.764830000000     0.666500000000     0          
C10      C      0.169600000000     0.817900000000     0.614100000000     0          
H11      H      0.198000000000     0.842000000000     0.638500000000     0          
H12      H      0.133800000000     0.835900000000     0.619000000000     0          
H13      H      0.177500000000     0.810100000000     0.550800000000     0          
C14      C      0.207630000000     0.751570000000     0.731200000000     0          
C15      C      0.130680000000     0.725810000000     0.639100000000     0          
H16      H      0.104100000000     0.734800000000     0.595000000000     0          
C17      C      0.208600000000     0.699340000000     0.231600000000     0          
O18      O      0.945200000000     0.352750000000     0.589300000000     0          
O19      O      0.899160000000     0.417920000000     0.668500000000     0          
C20      C      0.908100000000     0.368600000000     0.642000000000     0          
C21      C      0.868340000000     0.326420000000     0.676400000000     0          
C22      C      0.829400000000     0.339690000000     0.741000000000     0          
H23      H      0.828800000000     0.375400000000     0.766400000000     0          
C24      C      0.791400000000     0.300660000000     0.768400000000     0          
C25      C      0.831300000000     0.235170000000     0.666500000000     0          
C26      C      0.792370000000     0.248430000000     0.731200000000     0          
C27      C      0.869320000000     0.274190000000     0.639100000000     0          
H28      H      0.895900000000     0.265200000000     0.595000000000     0          
C29      C      0.752600000000     0.318300000000     0.842000000000     0          
H30      H      0.757800000000     0.355600000000     0.860900000000     0          
H31      H      0.716600000000     0.314200000000     0.816800000000     0          
H32      H      0.756500000000     0.294300000000     0.892700000000     0          
H33      H      0.834200000000     0.200500000000     0.643300000000     0          
C34      C      0.791400000000     0.300660000000     0.231600000000     0          
O35      O      0.352750000000     0.054800000000     0.089300000000     0          
O36      O      0.417920000000     0.100840000000     0.168500000000     0          
C37      C      0.368600000000     0.091900000000     0.142000000000     0          
C38      C      0.326420000000     0.131660000000     0.176400000000     0          
C39      C      0.339690000000     0.170600000000     0.241000000000     0          
H40      H      0.375400000000     0.171200000000     0.266400000000     0          
C41      C      0.300660000000     0.208600000000     0.268400000000     0          
H42      H      0.309900000000     0.235300000000     0.312300000000     0          
C43      C      0.235170000000     0.168700000000     0.166500000000     0          
C44      C      0.182100000000     0.169600000000     0.114100000000     0          
H45      H      0.158000000000     0.198000000000     0.138500000000     0          
H46      H      0.164100000000     0.133800000000     0.119000000000     0          
H47      H      0.189900000000     0.177500000000     0.050800000000     0          
C48      C      0.248430000000     0.207630000000     0.231200000000     0          
C49      C      0.274190000000     0.130680000000     0.139100000000     0          
H50      H      0.265200000000     0.104100000000     0.095000000000     0          
C51      C      0.300660000000     0.208600000000     0.731600000000     0          
O52      O      0.647250000000     0.945200000000     0.089300000000     0          
O53      O      0.582080000000     0.899160000000     0.168500000000     0          
C54      C      0.631400000000     0.908100000000     0.142000000000     0          
C55      C      0.673580000000     0.868340000000     0.176400000000     0          
C56      C      0.660310000000     0.829400000000     0.241000000000     0          
H57      H      0.624600000000     0.828800000000     0.266400000000     0          
C58      C      0.699340000000     0.791400000000     0.268400000000     0          
H59      H      0.690100000000     0.764700000000     0.312300000000     0          
C60      C      0.764830000000     0.831300000000     0.166500000000     0          
C61      C      0.817900000000     0.830400000000     0.114100000000     0          
H62      H      0.842000000000     0.802000000000     0.138500000000     0          
H63      H      0.835900000000     0.866200000000     0.119000000000     0          
H64      H      0.810100000000     0.822500000000     0.050800000000     0          
C65      C      0.751570000000     0.792370000000     0.231200000000     0          
C66      C      0.725810000000     0.869320000000     0.139100000000     0          
H67      H      0.734800000000     0.895900000000     0.095000000000     0          
C68      C      0.699340000000     0.791400000000     0.731600000000     0          
O69      O      0.945200000000     0.647250000000     0.410700000000     0          
O70      O      0.899160000000     0.582080000000     0.331500000000     0          
C71      C      0.908100000000     0.631400000000     0.358000000000     0          
C72      C      0.868340000000     0.673580000000     0.323600000000     0          
C73      C      0.829400000000     0.660310000000     0.259000000000     0          
H74      H      0.828800000000     0.624600000000     0.233600000000     0          
C75      C      0.791400000000     0.699340000000     0.231600000000     0          
H76      H      0.764700000000     0.690100000000     0.187700000000     0          
C77      C      0.831300000000     0.764830000000     0.333500000000     0          
C78      C      0.830400000000     0.817900000000     0.385900000000     0          
H79      H      0.802000000000     0.842000000000     0.361500000000     0          
H80      H      0.866200000000     0.835900000000     0.381000000000     0          
H81      H      0.822500000000     0.810100000000     0.449200000000     0          
C82      C      0.792370000000     0.751570000000     0.268800000000     0          
C83      C      0.869320000000     0.725810000000     0.360900000000     0          
H84      H      0.895900000000     0.734800000000     0.405000000000     0          
C85      C      0.791400000000     0.699340000000     0.768400000000     0          
O86      O      0.054800000000     0.352750000000     0.410700000000     0          
O87      O      0.100840000000     0.417920000000     0.331500000000     0          
C88      C      0.091900000000     0.368600000000     0.358000000000     0          
C89      C      0.131660000000     0.326420000000     0.323600000000     0          
C90      C      0.170600000000     0.339690000000     0.259000000000     0          
H91      H      0.171200000000     0.375400000000     0.233600000000     0          
C92      C      0.208600000000     0.300660000000     0.231600000000     0          
C93      C      0.168700000000     0.235170000000     0.333500000000     0          
C94      C      0.207630000000     0.248430000000     0.268800000000     0          
C95      C      0.130680000000     0.274190000000     0.360900000000     0          
H96      H      0.104100000000     0.265200000000     0.405000000000     0          
C97      C      0.247400000000     0.318300000000     0.158000000000     0          
H98      H      0.242200000000     0.355600000000     0.139100000000     0          
H99      H      0.283400000000     0.314200000000     0.183200000000     0          
H100     H      0.243500000000     0.294300000000     0.107300000000     0          
H101     H      0.165800000000     0.200500000000     0.356700000000     0          
C102     C      0.208600000000     0.300660000000     0.768400000000     0          
O103     O      0.647250000000     0.054800000000     0.910700000000     0          
O104     O      0.582080000000     0.100840000000     0.831500000000     0          
C105     C      0.631400000000     0.091900000000     0.858000000000     0          
C106     C      0.673580000000     0.131660000000     0.823600000000     0          
C107     C      0.660310000000     0.170600000000     0.759000000000     0          
H108     H      0.624600000000     0.171200000000     0.733600000000     0          
C109     C      0.699340000000     0.208600000000     0.731600000000     0          
H110     H      0.690100000000     0.235300000000     0.687700000000     0          
C111     C      0.764830000000     0.168700000000     0.833500000000     0          
C112     C      0.817900000000     0.169600000000     0.885900000000     0          
H113     H      0.842000000000     0.198000000000     0.861500000000     0          
H114     H      0.835900000000     0.133800000000     0.881000000000     0          
H115     H      0.810100000000     0.177500000000     0.949200000000     0          
C116     C      0.751570000000     0.207630000000     0.768800000000     0          
C117     C      0.725810000000     0.130680000000     0.860900000000     0          
H118     H      0.734800000000     0.104100000000     0.905000000000     0          
C119     C      0.699340000000     0.208600000000     0.268400000000     0          
O120     O      0.352750000000     0.945200000000     0.910700000000     0          
O121     O      0.417920000000     0.899160000000     0.831500000000     0          
C122     C      0.368600000000     0.908100000000     0.858000000000     0          
C123     C      0.326420000000     0.868340000000     0.823600000000     0          
C124     C      0.339690000000     0.829400000000     0.759000000000     0          
H125     H      0.375400000000     0.828800000000     0.733600000000     0          
C126     C      0.300660000000     0.791400000000     0.731600000000     0          
H127     H      0.309900000000     0.764700000000     0.687700000000     0          
C128     C      0.235170000000     0.831300000000     0.833500000000     0          
C129     C      0.182100000000     0.830400000000     0.885900000000     0          
H130     H      0.158000000000     0.802000000000     0.861500000000     0          
H131     H      0.164100000000     0.866200000000     0.881000000000     0          
H132     H      0.189900000000     0.822500000000     0.949200000000     0          
C133     C      0.248430000000     0.792370000000     0.768800000000     0          
C134     C      0.274190000000     0.869320000000     0.860900000000     0          
H135     H      0.265200000000     0.895900000000     0.905000000000     0          
C136     C      0.300660000000     0.791400000000     0.268400000000     0          
O137     O      0.945200000000     0.352750000000     0.410700000000     0          
O138     O      0.899160000000     0.417920000000     0.331500000000     0          
C139     C      0.908100000000     0.368600000000     0.358000000000     0          
C140     C      0.868340000000     0.326420000000     0.323600000000     0          
C141     C      0.829400000000     0.339690000000     0.259000000000     0          
H142     H      0.828800000000     0.375400000000     0.233600000000     0          
H144     H      0.764700000000     0.309900000000     0.187700000000     0          
C145     C      0.831300000000     0.235170000000     0.333500000000     0          
C146     C      0.830400000000     0.182100000000     0.385900000000     0          
H147     H      0.802000000000     0.158000000000     0.361500000000     0          
H148     H      0.866200000000     0.164100000000     0.381000000000     0          
H149     H      0.822500000000     0.189900000000     0.449200000000     0          
C150     C      0.792370000000     0.248430000000     0.268800000000     0          
C151     C      0.869320000000     0.274190000000     0.360900000000     0          
H152     H      0.895900000000     0.265200000000     0.405000000000     0          
O154     O      0.054800000000     0.647250000000     0.410700000000     0          
O155     O      0.100840000000     0.582080000000     0.331500000000     0          
C156     C      0.091900000000     0.631400000000     0.358000000000     0          
C157     C      0.131660000000     0.673580000000     0.323600000000     0          
C158     C      0.170600000000     0.660310000000     0.259000000000     0          
H159     H      0.171200000000     0.624600000000     0.233600000000     0          
C161     C      0.168700000000     0.764830000000     0.333500000000     0          
C162     C      0.207630000000     0.751570000000     0.268800000000     0          
C163     C      0.130680000000     0.725810000000     0.360900000000     0          
H164     H      0.104100000000     0.734800000000     0.405000000000     0          
C165     C      0.247400000000     0.681700000000     0.158000000000     0          
H166     H      0.242200000000     0.644400000000     0.139100000000     0          
H167     H      0.283400000000     0.685800000000     0.183200000000     0          
H168     H      0.243500000000     0.705700000000     0.107300000000     0          
H169     H      0.165800000000     0.799500000000     0.356700000000     0          
O171     O      0.647250000000     0.945200000000     0.910700000000     0          
O172     O      0.582080000000     0.899160000000     0.831500000000     0          
C173     C      0.631400000000     0.908100000000     0.858000000000     0          
C174     C      0.673580000000     0.868340000000     0.823600000000     0          
C175     C      0.660310000000     0.829400000000     0.759000000000     0          
H176     H      0.624600000000     0.828800000000     0.733600000000     0          
C178     C      0.764830000000     0.831300000000     0.833500000000     0          
C179     C      0.751570000000     0.792370000000     0.768800000000     0          
C180     C      0.725810000000     0.869320000000     0.860900000000     0          
H181     H      0.734800000000     0.895900000000     0.905000000000     0          
C182     C      0.681700000000     0.752600000000     0.658000000000     0          
H183     H      0.644400000000     0.757800000000     0.639100000000     0          
H184     H      0.685800000000     0.716600000000     0.683200000000     0          
H185     H      0.705700000000     0.756500000000     0.607300000000     0          
H186     H      0.799500000000     0.834200000000     0.856700000000     0          
O188     O      0.352750000000     0.054800000000     0.910700000000     0          
O189     O      0.417920000000     0.100840000000     0.831500000000     0          
C190     C      0.368600000000     0.091900000000     0.858000000000     0          
C191     C      0.326420000000     0.131660000000     0.823600000000     0          
C192     C      0.339690000000     0.170600000000     0.759000000000     0          
H193     H      0.375400000000     0.171200000000     0.733600000000     0          
H195     H      0.309900000000     0.235300000000     0.687700000000     0          
C196     C      0.235170000000     0.168700000000     0.833500000000     0          
C197     C      0.182100000000     0.169600000000     0.885900000000     0          
H198     H      0.158000000000     0.198000000000     0.861500000000     0          
H199     H      0.164100000000     0.133800000000     0.881000000000     0          
H200     H      0.189900000000     0.177500000000     0.949200000000     0          
C201     C      0.248430000000     0.207630000000     0.768800000000     0          
C202     C      0.274190000000     0.130680000000     0.860900000000     0          
H203     H      0.265200000000     0.104100000000     0.905000000000     0          
O205     O      0.054800000000     0.352750000000     0.589300000000     0          
O206     O      0.100840000000     0.417920000000     0.668500000000     0          
C207     C      0.091900000000     0.368600000000     0.642000000000     0          
C208     C      0.131660000000     0.326420000000     0.676400000000     0          
C209     C      0.170600000000     0.339690000000     0.741000000000     0          
H210     H      0.171200000000     0.375400000000     0.766400000000     0          
C212     C      0.168700000000     0.235170000000     0.666500000000     0          
C213     C      0.207630000000     0.248430000000     0.731200000000     0          
C214     C      0.130680000000     0.274190000000     0.639100000000     0          
H215     H      0.104100000000     0.265200000000     0.595000000000     0          
C216     C      0.247400000000     0.318300000000     0.842000000000     0          
H217     H      0.242200000000     0.355600000000     0.860900000000     0          
H218     H      0.283400000000     0.314200000000     0.816800000000     0          
H219     H      0.243500000000     0.294300000000     0.892700000000     0          
H220     H      0.165800000000     0.200500000000     0.643300000000     0          
O222     O      0.945200000000     0.647250000000     0.589300000000     0          
O223     O      0.899160000000     0.582080000000     0.668500000000     0          
C224     C      0.908100000000     0.631400000000     0.642000000000     0          
C225     C      0.868340000000     0.673580000000     0.676400000000     0          
C226     C      0.829400000000     0.660310000000     0.741000000000     0          
H227     H      0.828800000000     0.624600000000     0.766400000000     0          
C229     C      0.831300000000     0.764830000000     0.666500000000     0          
C230     C      0.792370000000     0.751570000000     0.731200000000     0          
C231     C      0.869320000000     0.725810000000     0.639100000000     0          
H232     H      0.895900000000     0.734800000000     0.595000000000     0          
C233     C      0.752600000000     0.681700000000     0.842000000000     0          
H234     H      0.757800000000     0.644400000000     0.860900000000     0          
H235     H      0.716600000000     0.685800000000     0.816800000000     0          
H236     H      0.756500000000     0.705700000000     0.892700000000     0          
H237     H      0.834200000000     0.799500000000     0.643300000000     0          
O239     O      0.352750000000     0.945200000000     0.089300000000     0          
O240     O      0.417920000000     0.899160000000     0.168500000000     0          
C241     C      0.368600000000     0.908100000000     0.142000000000     0          
C242     C      0.326420000000     0.868340000000     0.176400000000     0          
C243     C      0.339690000000     0.829400000000     0.241000000000     0          
H244     H      0.375400000000     0.828800000000     0.266400000000     0          
C246     C      0.235170000000     0.831300000000     0.166500000000     0          
C247     C      0.248430000000     0.792370000000     0.231200000000     0          
C248     C      0.274190000000     0.869320000000     0.139100000000     0          
H249     H      0.265200000000     0.895900000000     0.095000000000     0          
C250     C      0.318300000000     0.752600000000     0.342000000000     0          
H251     H      0.355600000000     0.757800000000     0.360900000000     0          
H252     H      0.314200000000     0.716600000000     0.316800000000     0          
H253     H      0.294300000000     0.756500000000     0.392700000000     0          
H254     H      0.200500000000     0.834200000000     0.143300000000     0          
O256     O      0.647250000000     0.054800000000     0.089300000000     0          
O257     O      0.582080000000     0.100840000000     0.168500000000     0          
C258     C      0.631400000000     0.091900000000     0.142000000000     0          
C259     C      0.673580000000     0.131660000000     0.176400000000     0          
C260     C      0.660310000000     0.170600000000     0.241000000000     0          
H261     H      0.624600000000     0.171200000000     0.266400000000     0          
C263     C      0.764830000000     0.168700000000     0.166500000000     0          
C264     C      0.751570000000     0.207630000000     0.231200000000     0          
C265     C      0.725810000000     0.130680000000     0.139100000000     0          
H266     H      0.734800000000     0.104100000000     0.095000000000     0          
C267     C      0.681700000000     0.247400000000     0.342000000000     0          
H268     H      0.644400000000     0.242200000000     0.360900000000     0          
H269     H      0.685800000000     0.283400000000     0.316800000000     0          
H270     H      0.705700000000     0.243500000000     0.392700000000     0          
H271     H      0.799500000000     0.165800000000     0.143300000000     0          
Zr273    Zr     0.071670000000     0.500000000000     0.619380000000     0          
O274     O      0.054300000000     0.500000000000     0.764800000000     0          
C275     C      0.049340000000     0.500000000000     0.953000000000     0          
H276     H      0.083100000000     0.500000000000     0.921100000000     0          
Zr277    Zr     0.928330000000     0.500000000000     0.619380000000     0          
O278     O      0.945700000000     0.500000000000     0.764800000000     0          
C279     C      0.950660000000     0.500000000000     0.953000000000     0          
H280     H      0.916900000000     0.500000000000     0.921100000000     0          
Zr281    Zr     0.500000000000     0.071670000000     0.119380000000     0          
O282     O      0.500000000000     0.054300000000     0.264800000000     0          
C283     C      0.500000000000     0.049340000000     0.453000000000     0          
H284     H      0.500000000000     0.083100000000     0.421100000000     0          
Zr285    Zr     0.500000000000     0.928330000000     0.119380000000     0          
O286     O      0.500000000000     0.945700000000     0.264800000000     0          
C287     C      0.500000000000     0.950660000000     0.453000000000     0          
H288     H      0.500000000000     0.916900000000     0.421100000000     0          
Zr289    Zr     0.928330000000     0.500000000000     0.380620000000     0          
O290     O      0.945700000000     0.500000000000     0.235200000000     0          
C291     C      0.950660000000     0.500000000000     0.047000000000     0          
H292     H      0.916900000000     0.500000000000     0.078900000000     0          
Zr293    Zr     0.071670000000     0.500000000000     0.380620000000     0          
O294     O      0.054300000000     0.500000000000     0.235200000000     0          
C295     C      0.049340000000     0.500000000000     0.047000000000     0          
H296     H      0.083100000000     0.500000000000     0.078900000000     0          
Zr297    Zr     0.500000000000     0.071670000000     0.880620000000     0          
O298     O      0.500000000000     0.054300000000     0.735200000000     0          
C299     C      0.500000000000     0.049340000000     0.547000000000     0          
H300     H      0.500000000000     0.083100000000     0.578900000000     0          
Zr301    Zr     0.500000000000     0.928330000000     0.880620000000     0          
O302     O      0.500000000000     0.945700000000     0.735200000000     0          
C303     C      0.500000000000     0.950660000000     0.547000000000     0          
H304     H      0.500000000000     0.916900000000     0.578900000000     0          
Zr305    Zr     0.000000000000     0.601010000000     0.500000000000     0          
Zr306    Zr     0.000000000000     0.398990000000     0.500000000000     0          
Zr307    Zr     0.398990000000     0.000000000000     0.000000000000     0          
Zr308    Zr     0.601010000000     0.000000000000     0.000000000000     0          
O310     O      0.000000000000     0.555800000000     0.633400000000     0          
O312     O      0.000000000000     0.444200000000     0.633400000000     0          
O314     O      0.444200000000     0.000000000000     0.133400000000     0          
O316     O      0.555800000000     0.000000000000     0.133400000000     0          
O318     O      0.000000000000     0.555800000000     0.366600000000     0          
O320     O      0.000000000000     0.444200000000     0.366600000000     0          
O322     O      0.555800000000     0.000000000000     0.866600000000     0          
O324     O      0.444200000000     0.000000000000     0.866600000000     0          
O326     O      0.081600000000     0.556500000000     0.500000000000     0          
H327     H      0.112900000000     0.579200000000     0.500000000000     0          
O329     O      0.918400000000     0.443500000000     0.500000000000     0          
H330     H      0.887100000000     0.420800000000     0.500000000000     0          
O332     O      0.443500000000     0.081600000000     0.000000000000     0          
H333     H      0.420800000000     0.112900000000     0.000000000000     0          
O335     O      0.556500000000     0.918400000000     0.000000000000     0          
H336     H      0.579200000000     0.887100000000     0.000000000000     0          
O338     O      0.918400000000     0.556500000000     0.500000000000     0          
H339     H      0.887100000000     0.579200000000     0.500000000000     0          
O341     O      0.081600000000     0.443500000000     0.500000000000     0          
H342     H      0.112900000000     0.420800000000     0.500000000000     0          
O344     O      0.556500000000     0.081600000000     0.000000000000     0          
H345     H      0.579200000000     0.112900000000     0.000000000000     0          
O347     O      0.443500000000     0.918400000000     0.000000000000     0          
H348     H      0.420800000000     0.887100000000     0.000000000000     0          
C349     C      0.000000000000     0.500000000000     0.805100000000     0          
C350     C      0.000000000000     0.500000000000     0.906400000000     0          
C351     C      0.500000000000     0.000000000000     0.305100000000     0          
C352     C      0.500000000000     0.000000000000     0.406400000000     0          
C353     C      0.000000000000     0.500000000000     0.194900000000     0          
C354     C      0.000000000000     0.500000000000     0.093600000000     0          
C355     C      0.500000000000     0.000000000000     0.694900000000     0          
C356     C      0.500000000000     0.000000000000     0.593600000000     0          


