data_RUBLAD

_audit_creation_method RASPA-1.0
_audit_creation_date 2020-11-2
_audit_author_name 'Rocio Bueno-Perez'

_cell_length_a    24.348
_cell_length_b    24.348
_cell_length_c    14.918
_cell_angle_alpha 90
_cell_angle_beta  90
_cell_angle_gamma 90
_cell_volume      8843.76

_symmetry_cell_setting          tetragonal
_symmetry_space_group_name_Hall 'P 1'
_symmetry_space_group_name_H-M  'P 1'
_symmetry_Int_Tables_number     1

_symmetry_equiv_pos_as_xyz 'x,y,z'

loop_
_atom_site_label
_atom_site_type_symbol
_atom_site_fract_x
_atom_site_fract_y
_atom_site_fract_z
_atom_site_charge
O4       O      0.945120000000     0.352590000000     0.588960000000     0          
O6       O      0.897680000000     0.416900000000     0.665100000000     0          
C1       C      0.907410000000     0.367880000000     0.641400000000     0          
C2       C      0.869270000000     0.324780000000     0.675600000000     0          
C3       C      0.871500000000     0.272910000000     0.641600000000     0          
H3       H      0.898900000000     0.264100000000     0.598700000000     0          
C4       C      0.834310000000     0.232410000000     0.668600000000     0          
C5       C      0.796100000000     0.245640000000     0.733700000000     0          
C6       C      0.794900000000     0.297110000000     0.770000000000     0          
H4       H      0.769200000000     0.305500000000     0.815900000000     0          
C7       C      0.831100000000     0.337350000000     0.740000000000     0          
H5       H      0.829300000000     0.373400000000     0.764000000000     0          
C8       C      0.834800000000     0.175600000000     0.623200000000     0          
H6       H      0.863800000000     0.174600000000     0.577600000000     0          
H7       H      0.799100000000     0.168800000000     0.594900000000     0          
H8       H      0.841900000000     0.147200000000     0.668400000000     0          
Zr1      Zr     0.000000000000     0.600540000000     0.500000000000     0          
Zr2      Zr     0.927400000000     0.500000000000     0.618490000000     0          
O1       O      0.000000000000     0.554100000000     0.633800000000     0          
H1       H      0.000000000000     0.569100000000     0.692100000000     0          
O2       O      0.083200000000     0.556500000000     0.500000000000     0          
H10?     H      0.114900000000     0.578700000000     0.500000000000     0          
O4       O      0.647410000000     0.945120000000     0.088960000000     0          
O6       O      0.583100000000     0.897680000000     0.165100000000     0          
C1       C      0.632120000000     0.907410000000     0.141400000000     0          
C2       C      0.675220000000     0.869270000000     0.175600000000     0          
C3       C      0.727090000000     0.871500000000     0.141600000000     0          
H3       H      0.735900000000     0.898900000000     0.098700000000     0          
C4       C      0.767590000000     0.834310000000     0.168600000000     0          
C5       C      0.754360000000     0.796100000000     0.233700000000     0          
C6       C      0.702890000000     0.794900000000     0.270000000000     0          
H4       H      0.694500000000     0.769200000000     0.315900000000     0          
C7       C      0.662650000000     0.831100000000     0.240000000000     0          
H5       H      0.626600000000     0.829300000000     0.264000000000     0          
C8       C      0.824400000000     0.834800000000     0.123200000000     0          
H6       H      0.825400000000     0.863800000000     0.077600000000     0          
H7       H      0.831200000000     0.799100000000     0.094900000000     0          
H8       H      0.852800000000     0.841900000000     0.168400000000     0          
Zr1      Zr     0.399460000000     0.000000000000     0.000000000000     0          
Zr2      Zr     0.500000000000     0.927400000000     0.118490000000     0          
O1       O      0.445900000000     0.000000000000     0.133800000000     0          
H1       H      0.430900000000     0.000000000000     0.192100000000     0          
O2       O      0.443500000000     0.083200000000     0.000000000000     0          
H10?     H      0.421300000000     0.114900000000     0.000000000000     0          
O4       O      0.054880000000     0.647410000000     0.588960000000     0          
O6       O      0.102320000000     0.583100000000     0.665100000000     0          
C1       C      0.092590000000     0.632120000000     0.641400000000     0          
C2       C      0.130730000000     0.675220000000     0.675600000000     0          
C3       C      0.128500000000     0.727090000000     0.641600000000     0          
H3       H      0.101100000000     0.735900000000     0.598700000000     0          
C4       C      0.165690000000     0.767590000000     0.668600000000     0          
C5       C      0.203900000000     0.754360000000     0.733700000000     0          
C6       C      0.205100000000     0.702890000000     0.770000000000     0          
H4       H      0.230800000000     0.694500000000     0.815900000000     0          
C7       C      0.168900000000     0.662650000000     0.740000000000     0          
H5       H      0.170700000000     0.626600000000     0.764000000000     0          
C8       C      0.165200000000     0.824400000000     0.623200000000     0          
H6       H      0.136200000000     0.825400000000     0.577600000000     0          
H7       H      0.200900000000     0.831200000000     0.594900000000     0          
H8       H      0.158100000000     0.852800000000     0.668400000000     0          
Zr1      Zr     0.000000000000     0.399460000000     0.500000000000     0          
Zr2      Zr     0.072600000000     0.500000000000     0.618490000000     0          
O1       O      0.000000000000     0.445900000000     0.633800000000     0          
H1       H      0.000000000000     0.430900000000     0.692100000000     0          
O2       O      0.916800000000     0.443500000000     0.500000000000     0          
H10?     H      0.885100000000     0.421300000000     0.500000000000     0          
O4       O      0.352590000000     0.054880000000     0.088960000000     0          
O6       O      0.416900000000     0.102320000000     0.165100000000     0          
C1       C      0.367880000000     0.092590000000     0.141400000000     0          
C2       C      0.324780000000     0.130730000000     0.175600000000     0          
C3       C      0.272910000000     0.128500000000     0.141600000000     0          
H3       H      0.264100000000     0.101100000000     0.098700000000     0          
C4       C      0.232410000000     0.165690000000     0.168600000000     0          
C5       C      0.245640000000     0.203900000000     0.233700000000     0          
C6       C      0.297110000000     0.205100000000     0.270000000000     0          
H4       H      0.305500000000     0.230800000000     0.315900000000     0          
C7       C      0.337350000000     0.168900000000     0.240000000000     0          
H5       H      0.373400000000     0.170700000000     0.264000000000     0          
C8       C      0.175600000000     0.165200000000     0.123200000000     0          
H6       H      0.174600000000     0.136200000000     0.077600000000     0          
H7       H      0.168800000000     0.200900000000     0.094900000000     0          
H8       H      0.147200000000     0.158100000000     0.168400000000     0          
Zr1      Zr     0.600540000000     0.000000000000     0.000000000000     0          
Zr2      Zr     0.500000000000     0.072600000000     0.118490000000     0          
O1       O      0.554100000000     0.000000000000     0.133800000000     0          
H1       H      0.569100000000     0.000000000000     0.192100000000     0          
O2       O      0.556500000000     0.916800000000     0.000000000000     0          
H10?     H      0.578700000000     0.885100000000     0.000000000000     0          
O4       O      0.945120000000     0.647410000000     0.411040000000     0          
O6       O      0.897680000000     0.583100000000     0.334900000000     0          
C1       C      0.907410000000     0.632120000000     0.358600000000     0          
C2       C      0.869270000000     0.675220000000     0.324400000000     0          
C3       C      0.871500000000     0.727090000000     0.358400000000     0          
H3       H      0.898900000000     0.735900000000     0.401300000000     0          
C4       C      0.834310000000     0.767590000000     0.331400000000     0          
C5       C      0.796100000000     0.754360000000     0.266300000000     0          
C6       C      0.794900000000     0.702890000000     0.230000000000     0          
H4       H      0.769200000000     0.694500000000     0.184100000000     0          
C7       C      0.831100000000     0.662650000000     0.260000000000     0          
H5       H      0.829300000000     0.626600000000     0.236000000000     0          
C8       C      0.834800000000     0.824400000000     0.376800000000     0          
H6       H      0.863800000000     0.825400000000     0.422400000000     0          
H7       H      0.799100000000     0.831200000000     0.405100000000     0          
H8       H      0.841900000000     0.852800000000     0.331600000000     0          
Zr2      Zr     0.927400000000     0.500000000000     0.381510000000     0          
O1       O      0.000000000000     0.445900000000     0.366200000000     0          
H1       H      0.000000000000     0.430900000000     0.307900000000     0          
O2       O      0.083200000000     0.443500000000     0.500000000000     0          
H10?     H      0.114900000000     0.421300000000     0.500000000000     0          
O4       O      0.352590000000     0.945120000000     0.911040000000     0          
O6       O      0.416900000000     0.897680000000     0.834900000000     0          
C1       C      0.367880000000     0.907410000000     0.858600000000     0          
C2       C      0.324780000000     0.869270000000     0.824400000000     0          
C3       C      0.272910000000     0.871500000000     0.858400000000     0          
H3       H      0.264100000000     0.898900000000     0.901300000000     0          
C4       C      0.232410000000     0.834310000000     0.831400000000     0          
C5       C      0.245640000000     0.796100000000     0.766300000000     0          
C6       C      0.297110000000     0.794900000000     0.730000000000     0          
H4       H      0.305500000000     0.769200000000     0.684100000000     0          
C7       C      0.337350000000     0.831100000000     0.760000000000     0          
H5       H      0.373400000000     0.829300000000     0.736000000000     0          
C8       C      0.175600000000     0.834800000000     0.876800000000     0          
H6       H      0.174600000000     0.863800000000     0.922400000000     0          
H7       H      0.168800000000     0.799100000000     0.905100000000     0          
H8       H      0.147200000000     0.841900000000     0.831600000000     0          
Zr2      Zr     0.500000000000     0.927400000000     0.881510000000     0          
O1       O      0.554100000000     0.000000000000     0.866200000000     0          
H1       H      0.569100000000     0.000000000000     0.807900000000     0          
O2       O      0.556500000000     0.083200000000     0.000000000000     0          
H10?     H      0.578700000000     0.114900000000     0.000000000000     0          
O4       O      0.054880000000     0.352590000000     0.411040000000     0          
O6       O      0.102320000000     0.416900000000     0.334900000000     0          
C1       C      0.092590000000     0.367880000000     0.358600000000     0          
C2       C      0.130730000000     0.324780000000     0.324400000000     0          
C3       C      0.128500000000     0.272910000000     0.358400000000     0          
H3       H      0.101100000000     0.264100000000     0.401300000000     0          
C4       C      0.165690000000     0.232410000000     0.331400000000     0          
C5       C      0.203900000000     0.245640000000     0.266300000000     0          
C6       C      0.205100000000     0.297110000000     0.230000000000     0          
H4       H      0.230800000000     0.305500000000     0.184100000000     0          
C7       C      0.168900000000     0.337350000000     0.260000000000     0          
H5       H      0.170700000000     0.373400000000     0.236000000000     0          
C8       C      0.165200000000     0.175600000000     0.376800000000     0          
H6       H      0.136200000000     0.174600000000     0.422400000000     0          
H7       H      0.200900000000     0.168800000000     0.405100000000     0          
H8       H      0.158100000000     0.147200000000     0.331600000000     0          
Zr2      Zr     0.072600000000     0.500000000000     0.381510000000     0          
O1       O      0.000000000000     0.554100000000     0.366200000000     0          
H1       H      0.000000000000     0.569100000000     0.307900000000     0          
O2       O      0.916800000000     0.556500000000     0.500000000000     0          
H10?     H      0.885100000000     0.578700000000     0.500000000000     0          
O4       O      0.647410000000     0.054880000000     0.911040000000     0          
O6       O      0.583100000000     0.102320000000     0.834900000000     0          
C1       C      0.632120000000     0.092590000000     0.858600000000     0          
C2       C      0.675220000000     0.130730000000     0.824400000000     0          
C3       C      0.727090000000     0.128500000000     0.858400000000     0          
H3       H      0.735900000000     0.101100000000     0.901300000000     0          
C4       C      0.767590000000     0.165690000000     0.831400000000     0          
C5       C      0.754360000000     0.203900000000     0.766300000000     0          
C6       C      0.702890000000     0.205100000000     0.730000000000     0          
H4       H      0.694500000000     0.230800000000     0.684100000000     0          
C7       C      0.662650000000     0.168900000000     0.760000000000     0          
H5       H      0.626600000000     0.170700000000     0.736000000000     0          
C8       C      0.824400000000     0.165200000000     0.876800000000     0          
H6       H      0.825400000000     0.136200000000     0.922400000000     0          
H7       H      0.831200000000     0.200900000000     0.905100000000     0          
H8       H      0.852800000000     0.158100000000     0.831600000000     0          
Zr2      Zr     0.500000000000     0.072600000000     0.881510000000     0          
O1       O      0.445900000000     0.000000000000     0.866200000000     0          
H1       H      0.430900000000     0.000000000000     0.807900000000     0          
O2       O      0.443500000000     0.916800000000     0.000000000000     0          
H10?     H      0.421300000000     0.885100000000     0.000000000000     0          
O4       O      0.054880000000     0.647410000000     0.411040000000     0          
O6       O      0.102320000000     0.583100000000     0.334900000000     0          
C1       C      0.092590000000     0.632120000000     0.358600000000     0          
C2       C      0.130730000000     0.675220000000     0.324400000000     0          
C3       C      0.128500000000     0.727090000000     0.358400000000     0          
H3       H      0.101100000000     0.735900000000     0.401300000000     0          
C4       C      0.165690000000     0.767590000000     0.331400000000     0          
C5       C      0.203900000000     0.754360000000     0.266300000000     0          
C6       C      0.205100000000     0.702890000000     0.230000000000     0          
H4       H      0.230800000000     0.694500000000     0.184100000000     0          
C7       C      0.168900000000     0.662650000000     0.260000000000     0          
H5       H      0.170700000000     0.626600000000     0.236000000000     0          
C8       C      0.165200000000     0.824400000000     0.376800000000     0          
H6       H      0.136200000000     0.825400000000     0.422400000000     0          
H7       H      0.200900000000     0.831200000000     0.405100000000     0          
H8       H      0.158100000000     0.852800000000     0.331600000000     0          
O4       O      0.352590000000     0.054880000000     0.911040000000     0          
O6       O      0.416900000000     0.102320000000     0.834900000000     0          
C1       C      0.367880000000     0.092590000000     0.858600000000     0          
C2       C      0.324780000000     0.130730000000     0.824400000000     0          
C3       C      0.272910000000     0.128500000000     0.858400000000     0          
H3       H      0.264100000000     0.101100000000     0.901300000000     0          
C4       C      0.232410000000     0.165690000000     0.831400000000     0          
C5       C      0.245640000000     0.203900000000     0.766300000000     0          
C6       C      0.297110000000     0.205100000000     0.730000000000     0          
H4       H      0.305500000000     0.230800000000     0.684100000000     0          
C7       C      0.337350000000     0.168900000000     0.760000000000     0          
H5       H      0.373400000000     0.170700000000     0.736000000000     0          
C8       C      0.175600000000     0.165200000000     0.876800000000     0          
H6       H      0.174600000000     0.136200000000     0.922400000000     0          
H7       H      0.168800000000     0.200900000000     0.905100000000     0          
H8       H      0.147200000000     0.158100000000     0.831600000000     0          
O4       O      0.945120000000     0.352590000000     0.411040000000     0          
O6       O      0.897680000000     0.416900000000     0.334900000000     0          
C1       C      0.907410000000     0.367880000000     0.358600000000     0          
C2       C      0.869270000000     0.324780000000     0.324400000000     0          
C3       C      0.871500000000     0.272910000000     0.358400000000     0          
H3       H      0.898900000000     0.264100000000     0.401300000000     0          
C4       C      0.834310000000     0.232410000000     0.331400000000     0          
C5       C      0.796100000000     0.245640000000     0.266300000000     0          
C6       C      0.794900000000     0.297110000000     0.230000000000     0          
H4       H      0.769200000000     0.305500000000     0.184100000000     0          
C7       C      0.831100000000     0.337350000000     0.260000000000     0          
H5       H      0.829300000000     0.373400000000     0.236000000000     0          
C8       C      0.834800000000     0.175600000000     0.376800000000     0          
H6       H      0.863800000000     0.174600000000     0.422400000000     0          
H7       H      0.799100000000     0.168800000000     0.405100000000     0          
H8       H      0.841900000000     0.147200000000     0.331600000000     0          
O4       O      0.647410000000     0.945120000000     0.911040000000     0          
O6       O      0.583100000000     0.897680000000     0.834900000000     0          
C1       C      0.632120000000     0.907410000000     0.858600000000     0          
C2       C      0.675220000000     0.869270000000     0.824400000000     0          
C3       C      0.727090000000     0.871500000000     0.858400000000     0          
H3       H      0.735900000000     0.898900000000     0.901300000000     0          
C4       C      0.767590000000     0.834310000000     0.831400000000     0          
C5       C      0.754360000000     0.796100000000     0.766300000000     0          
C6       C      0.702890000000     0.794900000000     0.730000000000     0          
H4       H      0.694500000000     0.769200000000     0.684100000000     0          
C7       C      0.662650000000     0.831100000000     0.760000000000     0          
H5       H      0.626600000000     0.829300000000     0.736000000000     0          
C8       C      0.824400000000     0.834800000000     0.876800000000     0          
H6       H      0.825400000000     0.863800000000     0.922400000000     0          
H7       H      0.831200000000     0.799100000000     0.905100000000     0          
H8       H      0.852800000000     0.841900000000     0.831600000000     0          
O4       O      0.054880000000     0.352590000000     0.588960000000     0          
O6       O      0.102320000000     0.416900000000     0.665100000000     0          
C1       C      0.092590000000     0.367880000000     0.641400000000     0          
C2       C      0.130730000000     0.324780000000     0.675600000000     0          
C3       C      0.128500000000     0.272910000000     0.641600000000     0          
H3       H      0.101100000000     0.264100000000     0.598700000000     0          
C4       C      0.165690000000     0.232410000000     0.668600000000     0          
C5       C      0.203900000000     0.245640000000     0.733700000000     0          
C6       C      0.205100000000     0.297110000000     0.770000000000     0          
H4       H      0.230800000000     0.305500000000     0.815900000000     0          
C7       C      0.168900000000     0.337350000000     0.740000000000     0          
H5       H      0.170700000000     0.373400000000     0.764000000000     0          
C8       C      0.165200000000     0.175600000000     0.623200000000     0          
H6       H      0.136200000000     0.174600000000     0.577600000000     0          
H7       H      0.200900000000     0.168800000000     0.594900000000     0          
H8       H      0.158100000000     0.147200000000     0.668400000000     0          
O4       O      0.647410000000     0.054880000000     0.088960000000     0          
O6       O      0.583100000000     0.102320000000     0.165100000000     0          
C1       C      0.632120000000     0.092590000000     0.141400000000     0          
C2       C      0.675220000000     0.130730000000     0.175600000000     0          
C3       C      0.727090000000     0.128500000000     0.141600000000     0          
H3       H      0.735900000000     0.101100000000     0.098700000000     0          
C4       C      0.767590000000     0.165690000000     0.168600000000     0          
C5       C      0.754360000000     0.203900000000     0.233700000000     0          
C6       C      0.702890000000     0.205100000000     0.270000000000     0          
H4       H      0.694500000000     0.230800000000     0.315900000000     0          
C7       C      0.662650000000     0.168900000000     0.240000000000     0          
H5       H      0.626600000000     0.170700000000     0.264000000000     0          
C8       C      0.824400000000     0.165200000000     0.123200000000     0          
H6       H      0.825400000000     0.136200000000     0.077600000000     0          
H7       H      0.831200000000     0.200900000000     0.094900000000     0          
H8       H      0.852800000000     0.158100000000     0.168400000000     0          
O4       O      0.945120000000     0.647410000000     0.588960000000     0          
O6       O      0.897680000000     0.583100000000     0.665100000000     0          
C1       C      0.907410000000     0.632120000000     0.641400000000     0          
C2       C      0.869270000000     0.675220000000     0.675600000000     0          
C3       C      0.871500000000     0.727090000000     0.641600000000     0          
H3       H      0.898900000000     0.735900000000     0.598700000000     0          
C4       C      0.834310000000     0.767590000000     0.668600000000     0          
C5       C      0.796100000000     0.754360000000     0.733700000000     0          
C6       C      0.794900000000     0.702890000000     0.770000000000     0          
H4       H      0.769200000000     0.694500000000     0.815900000000     0          
C7       C      0.831100000000     0.662650000000     0.740000000000     0          
H5       H      0.829300000000     0.626600000000     0.764000000000     0          
C8       C      0.834800000000     0.824400000000     0.623200000000     0          
H6       H      0.863800000000     0.825400000000     0.577600000000     0          
H7       H      0.799100000000     0.831200000000     0.594900000000     0          
H8       H      0.841900000000     0.852800000000     0.668400000000     0          
O4       O      0.352590000000     0.945120000000     0.088960000000     0          
O6       O      0.416900000000     0.897680000000     0.165100000000     0          
C1       C      0.367880000000     0.907410000000     0.141400000000     0          
C2       C      0.324780000000     0.869270000000     0.175600000000     0          
C3       C      0.272910000000     0.871500000000     0.141600000000     0          
H3       H      0.264100000000     0.898900000000     0.098700000000     0          
C4       C      0.232410000000     0.834310000000     0.168600000000     0          
C5       C      0.245640000000     0.796100000000     0.233700000000     0          
C6       C      0.297110000000     0.794900000000     0.270000000000     0          
H4       H      0.305500000000     0.769200000000     0.315900000000     0          
C7       C      0.337350000000     0.831100000000     0.240000000000     0          
H5       H      0.373400000000     0.829300000000     0.264000000000     0          
C8       C      0.175600000000     0.834800000000     0.123200000000     0          
H6       H      0.174600000000     0.863800000000     0.077600000000     0          
H7       H      0.168800000000     0.799100000000     0.094900000000     0          
H8       H      0.147200000000     0.841900000000     0.168400000000     0          


