data_RUBLAD03

_audit_creation_method RASPA-1.0
_audit_creation_date 2020-11-2
_audit_author_name 'Rocio Bueno-Perez'

_cell_length_a    24.4443
_cell_length_b    24.4443
_cell_length_c    14.3985
_cell_angle_alpha 90
_cell_angle_beta  90
_cell_angle_gamma 90
_cell_volume      8603.45

_symmetry_cell_setting          tetragonal
_symmetry_space_group_name_Hall 'P 1'
_symmetry_space_group_name_H-M  'P 1'
_symmetry_Int_Tables_number     1

_symmetry_equiv_pos_as_xyz 'x,y,z'

loop_
_atom_site_label
_atom_site_type_symbol
_atom_site_fract_x
_atom_site_fract_y
_atom_site_fract_z
_atom_site_charge
O3       O      0.054520000000     0.353350000000     0.409400000000     0          
O4       O      0.101220000000     0.417210000000     0.328500000000     0          
C1       C      0.091900000000     0.367710000000     0.356400000000     0          
C2       C      0.129700000000     0.325300000000     0.320200000000     0          
C3       C      0.127300000000     0.274400000000     0.356700000000     0          
H1       H      0.100440000000     0.266580000000     0.402510000000     0          
C4       C      0.164000000000     0.231900000000     0.328700000000     0          
C5       C      0.202900000000     0.244900000000     0.265700000000     0          
C6       C      0.205500000000     0.297500000000     0.227300000000     0          
H2       H      0.232950000000     0.306180000000     0.182970000000     0          
C7       C      0.167700000000     0.336800000000     0.254600000000     0          
H3       H      0.168540000000     0.372100000000     0.226910000000     0          
C8       C      0.161500000000     0.175900000000     0.375400000000     0          
H4       H      0.129590000000     0.174270000000     0.416480000000     0          
H5       H      0.194860000000     0.170040000000     0.411760000000     0          
H6       H      0.158450000000     0.147390000000     0.327770000000     0          
Zr1      Zr     0.072430000000     0.500000000000     0.377750000000     0          
Zr2      Zr     0.000000000000     0.399940000000     0.500000000000     0          
O1       O      0.000000000000     0.451250000000     0.378100000000     0          
O2       O      0.073400000000     0.449800000000     0.500000000000     0          
O3       O      0.646650000000     0.054520000000     0.909400000000     0          
O4       O      0.582790000000     0.101220000000     0.828500000000     0          
C1       C      0.632290000000     0.091900000000     0.856400000000     0          
C2       C      0.674700000000     0.129700000000     0.820200000000     0          
C3       C      0.725600000000     0.127300000000     0.856700000000     0          
H1       H      0.733420000000     0.100440000000     0.902510000000     0          
C4       C      0.768100000000     0.164000000000     0.828700000000     0          
C5       C      0.755100000000     0.202900000000     0.765700000000     0          
C6       C      0.702500000000     0.205500000000     0.727300000000     0          
H2       H      0.693820000000     0.232950000000     0.682970000000     0          
C7       C      0.663200000000     0.167700000000     0.754600000000     0          
H3       H      0.627900000000     0.168540000000     0.726910000000     0          
C8       C      0.824100000000     0.161500000000     0.875400000000     0          
H4       H      0.825730000000     0.129590000000     0.916480000000     0          
H5       H      0.829960000000     0.194860000000     0.911760000000     0          
H6       H      0.852610000000     0.158450000000     0.827770000000     0          
Zr1      Zr     0.500000000000     0.072430000000     0.877750000000     0          
Zr2      Zr     0.600060000000     0.000000000000     0.000000000000     0          
O1       O      0.548750000000     0.000000000000     0.878100000000     0          
O2       O      0.550200000000     0.073400000000     0.000000000000     0          
O3       O      0.945480000000     0.646650000000     0.409400000000     0          
O4       O      0.898780000000     0.582790000000     0.328500000000     0          
C1       C      0.908100000000     0.632290000000     0.356400000000     0          
C2       C      0.870300000000     0.674700000000     0.320200000000     0          
C3       C      0.872700000000     0.725600000000     0.356700000000     0          
H1       H      0.899560000000     0.733420000000     0.402510000000     0          
C4       C      0.836000000000     0.768100000000     0.328700000000     0          
C5       C      0.797100000000     0.755100000000     0.265700000000     0          
C6       C      0.794500000000     0.702500000000     0.227300000000     0          
H2       H      0.767050000000     0.693820000000     0.182970000000     0          
C7       C      0.832300000000     0.663200000000     0.254600000000     0          
H3       H      0.831460000000     0.627900000000     0.226910000000     0          
C8       C      0.838500000000     0.824100000000     0.375400000000     0          
H4       H      0.870410000000     0.825730000000     0.416480000000     0          
H5       H      0.805140000000     0.829960000000     0.411760000000     0          
H6       H      0.841550000000     0.852610000000     0.327770000000     0          
Zr1      Zr     0.927570000000     0.500000000000     0.377750000000     0          
Zr2      Zr     0.000000000000     0.600060000000     0.500000000000     0          
O1       O      0.000000000000     0.548750000000     0.378100000000     0          
O2       O      0.926600000000     0.550200000000     0.500000000000     0          
O3       O      0.353350000000     0.945480000000     0.909400000000     0          
O4       O      0.417210000000     0.898780000000     0.828500000000     0          
C1       C      0.367710000000     0.908100000000     0.856400000000     0          
C2       C      0.325300000000     0.870300000000     0.820200000000     0          
C3       C      0.274400000000     0.872700000000     0.856700000000     0          
H1       H      0.266580000000     0.899560000000     0.902510000000     0          
C4       C      0.231900000000     0.836000000000     0.828700000000     0          
C5       C      0.244900000000     0.797100000000     0.765700000000     0          
C6       C      0.297500000000     0.794500000000     0.727300000000     0          
H2       H      0.306180000000     0.767050000000     0.682970000000     0          
C7       C      0.336800000000     0.832300000000     0.754600000000     0          
H3       H      0.372100000000     0.831460000000     0.726910000000     0          
C8       C      0.175900000000     0.838500000000     0.875400000000     0          
H4       H      0.174270000000     0.870410000000     0.916480000000     0          
H5       H      0.170040000000     0.805140000000     0.911760000000     0          
H6       H      0.147390000000     0.841550000000     0.827770000000     0          
Zr1      Zr     0.500000000000     0.927570000000     0.877750000000     0          
Zr2      Zr     0.399940000000     0.000000000000     0.000000000000     0          
O1       O      0.451250000000     0.000000000000     0.878100000000     0          
O2       O      0.449800000000     0.926600000000     0.000000000000     0          
O3       O      0.054520000000     0.646650000000     0.590600000000     0          
O4       O      0.101220000000     0.582790000000     0.671500000000     0          
C1       C      0.091900000000     0.632290000000     0.643600000000     0          
C2       C      0.129700000000     0.674700000000     0.679800000000     0          
C3       C      0.127300000000     0.725600000000     0.643300000000     0          
H1       H      0.100440000000     0.733420000000     0.597490000000     0          
C4       C      0.164000000000     0.768100000000     0.671300000000     0          
C5       C      0.202900000000     0.755100000000     0.734300000000     0          
C6       C      0.205500000000     0.702500000000     0.772700000000     0          
H2       H      0.232950000000     0.693820000000     0.817030000000     0          
C7       C      0.167700000000     0.663200000000     0.745400000000     0          
H3       H      0.168540000000     0.627900000000     0.773090000000     0          
C8       C      0.161500000000     0.824100000000     0.624600000000     0          
H4       H      0.129590000000     0.825730000000     0.583520000000     0          
H5       H      0.194860000000     0.829960000000     0.588240000000     0          
H6       H      0.158450000000     0.852610000000     0.672230000000     0          
Zr1      Zr     0.072430000000     0.500000000000     0.622250000000     0          
O1       O      0.000000000000     0.548750000000     0.621900000000     0          
O2       O      0.073400000000     0.550200000000     0.500000000000     0          
O3       O      0.353350000000     0.054520000000     0.090600000000     0          
O4       O      0.417210000000     0.101220000000     0.171500000000     0          
C1       C      0.367710000000     0.091900000000     0.143600000000     0          
C2       C      0.325300000000     0.129700000000     0.179800000000     0          
C3       C      0.274400000000     0.127300000000     0.143300000000     0          
H1       H      0.266580000000     0.100440000000     0.097490000000     0          
C4       C      0.231900000000     0.164000000000     0.171300000000     0          
C5       C      0.244900000000     0.202900000000     0.234300000000     0          
C6       C      0.297500000000     0.205500000000     0.272700000000     0          
H2       H      0.306180000000     0.232950000000     0.317030000000     0          
C7       C      0.336800000000     0.167700000000     0.245400000000     0          
H3       H      0.372100000000     0.168540000000     0.273090000000     0          
C8       C      0.175900000000     0.161500000000     0.124600000000     0          
H4       H      0.174270000000     0.129590000000     0.083520000000     0          
H5       H      0.170040000000     0.194860000000     0.088240000000     0          
H6       H      0.147390000000     0.158450000000     0.172230000000     0          
Zr1      Zr     0.500000000000     0.072430000000     0.122250000000     0          
O1       O      0.451250000000     0.000000000000     0.121900000000     0          
O2       O      0.449800000000     0.073400000000     0.000000000000     0          
O3       O      0.945480000000     0.353350000000     0.590600000000     0          
O4       O      0.898780000000     0.417210000000     0.671500000000     0          
C1       C      0.908100000000     0.367710000000     0.643600000000     0          
C2       C      0.870300000000     0.325300000000     0.679800000000     0          
C3       C      0.872700000000     0.274400000000     0.643300000000     0          
H1       H      0.899560000000     0.266580000000     0.597490000000     0          
C4       C      0.836000000000     0.231900000000     0.671300000000     0          
C5       C      0.797100000000     0.244900000000     0.734300000000     0          
C6       C      0.794500000000     0.297500000000     0.772700000000     0          
H2       H      0.767050000000     0.306180000000     0.817030000000     0          
C7       C      0.832300000000     0.336800000000     0.745400000000     0          
H3       H      0.831460000000     0.372100000000     0.773090000000     0          
C8       C      0.838500000000     0.175900000000     0.624600000000     0          
H4       H      0.870410000000     0.174270000000     0.583520000000     0          
H5       H      0.805140000000     0.170040000000     0.588240000000     0          
H6       H      0.841550000000     0.147390000000     0.672230000000     0          
Zr1      Zr     0.927570000000     0.500000000000     0.622250000000     0          
O1       O      0.000000000000     0.451250000000     0.621900000000     0          
O2       O      0.926600000000     0.449800000000     0.500000000000     0          
O3       O      0.646650000000     0.945480000000     0.090600000000     0          
O4       O      0.582790000000     0.898780000000     0.171500000000     0          
C1       C      0.632290000000     0.908100000000     0.143600000000     0          
C2       C      0.674700000000     0.870300000000     0.179800000000     0          
C3       C      0.725600000000     0.872700000000     0.143300000000     0          
H1       H      0.733420000000     0.899560000000     0.097490000000     0          
C4       C      0.768100000000     0.836000000000     0.171300000000     0          
C5       C      0.755100000000     0.797100000000     0.234300000000     0          
C6       C      0.702500000000     0.794500000000     0.272700000000     0          
H2       H      0.693820000000     0.767050000000     0.317030000000     0          
C7       C      0.663200000000     0.832300000000     0.245400000000     0          
H3       H      0.627900000000     0.831460000000     0.273090000000     0          
C8       C      0.824100000000     0.838500000000     0.124600000000     0          
H4       H      0.825730000000     0.870410000000     0.083520000000     0          
H5       H      0.829960000000     0.805140000000     0.088240000000     0          
H6       H      0.852610000000     0.841550000000     0.172230000000     0          
Zr1      Zr     0.500000000000     0.927570000000     0.122250000000     0          
O1       O      0.548750000000     0.000000000000     0.121900000000     0          
O2       O      0.550200000000     0.926600000000     0.000000000000     0          
O3       O      0.945480000000     0.646650000000     0.590600000000     0          
O4       O      0.898780000000     0.582790000000     0.671500000000     0          
C1       C      0.908100000000     0.632290000000     0.643600000000     0          
C2       C      0.870300000000     0.674700000000     0.679800000000     0          
C3       C      0.872700000000     0.725600000000     0.643300000000     0          
H1       H      0.899560000000     0.733420000000     0.597490000000     0          
C4       C      0.836000000000     0.768100000000     0.671300000000     0          
C5       C      0.797100000000     0.755100000000     0.734300000000     0          
C6       C      0.794500000000     0.702500000000     0.772700000000     0          
H2       H      0.767050000000     0.693820000000     0.817030000000     0          
C7       C      0.832300000000     0.663200000000     0.745400000000     0          
H3       H      0.831460000000     0.627900000000     0.773090000000     0          
C8       C      0.838500000000     0.824100000000     0.624600000000     0          
H4       H      0.870410000000     0.825730000000     0.583520000000     0          
H5       H      0.805140000000     0.829960000000     0.588240000000     0          
H6       H      0.841550000000     0.852610000000     0.672230000000     0          
O3       O      0.353350000000     0.945480000000     0.090600000000     0          
O4       O      0.417210000000     0.898780000000     0.171500000000     0          
C1       C      0.367710000000     0.908100000000     0.143600000000     0          
C2       C      0.325300000000     0.870300000000     0.179800000000     0          
C3       C      0.274400000000     0.872700000000     0.143300000000     0          
H1       H      0.266580000000     0.899560000000     0.097490000000     0          
C4       C      0.231900000000     0.836000000000     0.171300000000     0          
C5       C      0.244900000000     0.797100000000     0.234300000000     0          
C6       C      0.297500000000     0.794500000000     0.272700000000     0          
H2       H      0.306180000000     0.767050000000     0.317030000000     0          
C7       C      0.336800000000     0.832300000000     0.245400000000     0          
H3       H      0.372100000000     0.831460000000     0.273090000000     0          
C8       C      0.175900000000     0.838500000000     0.124600000000     0          
H4       H      0.174270000000     0.870410000000     0.083520000000     0          
H5       H      0.170040000000     0.805140000000     0.088240000000     0          
H6       H      0.147390000000     0.841550000000     0.172230000000     0          
O3       O      0.054520000000     0.353350000000     0.590600000000     0          
O4       O      0.101220000000     0.417210000000     0.671500000000     0          
C1       C      0.091900000000     0.367710000000     0.643600000000     0          
C2       C      0.129700000000     0.325300000000     0.679800000000     0          
C3       C      0.127300000000     0.274400000000     0.643300000000     0          
H1       H      0.100440000000     0.266580000000     0.597490000000     0          
C4       C      0.164000000000     0.231900000000     0.671300000000     0          
C5       C      0.202900000000     0.244900000000     0.734300000000     0          
C6       C      0.205500000000     0.297500000000     0.772700000000     0          
H2       H      0.232950000000     0.306180000000     0.817030000000     0          
C7       C      0.167700000000     0.336800000000     0.745400000000     0          
H3       H      0.168540000000     0.372100000000     0.773090000000     0          
C8       C      0.161500000000     0.175900000000     0.624600000000     0          
H4       H      0.129590000000     0.174270000000     0.583520000000     0          
H5       H      0.194860000000     0.170040000000     0.588240000000     0          
H6       H      0.158450000000     0.147390000000     0.672230000000     0          
O3       O      0.646650000000     0.054520000000     0.090600000000     0          
O4       O      0.582790000000     0.101220000000     0.171500000000     0          
C1       C      0.632290000000     0.091900000000     0.143600000000     0          
C2       C      0.674700000000     0.129700000000     0.179800000000     0          
C3       C      0.725600000000     0.127300000000     0.143300000000     0          
H1       H      0.733420000000     0.100440000000     0.097490000000     0          
C4       C      0.768100000000     0.164000000000     0.171300000000     0          
C5       C      0.755100000000     0.202900000000     0.234300000000     0          
C6       C      0.702500000000     0.205500000000     0.272700000000     0          
H2       H      0.693820000000     0.232950000000     0.317030000000     0          
C7       C      0.663200000000     0.167700000000     0.245400000000     0          
H3       H      0.627900000000     0.168540000000     0.273090000000     0          
C8       C      0.824100000000     0.161500000000     0.124600000000     0          
H4       H      0.825730000000     0.129590000000     0.083520000000     0          
H5       H      0.829960000000     0.194860000000     0.088240000000     0          
H6       H      0.852610000000     0.158450000000     0.172230000000     0          
O3       O      0.945480000000     0.353350000000     0.409400000000     0          
O4       O      0.898780000000     0.417210000000     0.328500000000     0          
C1       C      0.908100000000     0.367710000000     0.356400000000     0          
C2       C      0.870300000000     0.325300000000     0.320200000000     0          
C3       C      0.872700000000     0.274400000000     0.356700000000     0          
H1       H      0.899560000000     0.266580000000     0.402510000000     0          
C4       C      0.836000000000     0.231900000000     0.328700000000     0          
C5       C      0.797100000000     0.244900000000     0.265700000000     0          
C6       C      0.794500000000     0.297500000000     0.227300000000     0          
H2       H      0.767050000000     0.306180000000     0.182970000000     0          
C7       C      0.832300000000     0.336800000000     0.254600000000     0          
H3       H      0.831460000000     0.372100000000     0.226910000000     0          
C8       C      0.838500000000     0.175900000000     0.375400000000     0          
H4       H      0.870410000000     0.174270000000     0.416480000000     0          
H5       H      0.805140000000     0.170040000000     0.411760000000     0          
H6       H      0.841550000000     0.147390000000     0.327770000000     0          
O3       O      0.646650000000     0.945480000000     0.909400000000     0          
O4       O      0.582790000000     0.898780000000     0.828500000000     0          
C1       C      0.632290000000     0.908100000000     0.856400000000     0          
C2       C      0.674700000000     0.870300000000     0.820200000000     0          
C3       C      0.725600000000     0.872700000000     0.856700000000     0          
H1       H      0.733420000000     0.899560000000     0.902510000000     0          
C4       C      0.768100000000     0.836000000000     0.828700000000     0          
C5       C      0.755100000000     0.797100000000     0.765700000000     0          
C6       C      0.702500000000     0.794500000000     0.727300000000     0          
H2       H      0.693820000000     0.767050000000     0.682970000000     0          
C7       C      0.663200000000     0.832300000000     0.754600000000     0          
H3       H      0.627900000000     0.831460000000     0.726910000000     0          
C8       C      0.824100000000     0.838500000000     0.875400000000     0          
H4       H      0.825730000000     0.870410000000     0.916480000000     0          
H5       H      0.829960000000     0.805140000000     0.911760000000     0          
H6       H      0.852610000000     0.841550000000     0.827770000000     0          
O3       O      0.054520000000     0.646650000000     0.409400000000     0          
O4       O      0.101220000000     0.582790000000     0.328500000000     0          
C1       C      0.091900000000     0.632290000000     0.356400000000     0          
C2       C      0.129700000000     0.674700000000     0.320200000000     0          
C3       C      0.127300000000     0.725600000000     0.356700000000     0          
H1       H      0.100440000000     0.733420000000     0.402510000000     0          
C4       C      0.164000000000     0.768100000000     0.328700000000     0          
C5       C      0.202900000000     0.755100000000     0.265700000000     0          
C6       C      0.205500000000     0.702500000000     0.227300000000     0          
H2       H      0.232950000000     0.693820000000     0.182970000000     0          
C7       C      0.167700000000     0.663200000000     0.254600000000     0          
H3       H      0.168540000000     0.627900000000     0.226910000000     0          
C8       C      0.161500000000     0.824100000000     0.375400000000     0          
H4       H      0.129590000000     0.825730000000     0.416480000000     0          
H5       H      0.194860000000     0.829960000000     0.411760000000     0          
H6       H      0.158450000000     0.852610000000     0.327770000000     0          
O3       O      0.353350000000     0.054520000000     0.909400000000     0          
O4       O      0.417210000000     0.101220000000     0.828500000000     0          
C1       C      0.367710000000     0.091900000000     0.856400000000     0          
C2       C      0.325300000000     0.129700000000     0.820200000000     0          
C3       C      0.274400000000     0.127300000000     0.856700000000     0          
H1       H      0.266580000000     0.100440000000     0.902510000000     0          
C4       C      0.231900000000     0.164000000000     0.828700000000     0          
C5       C      0.244900000000     0.202900000000     0.765700000000     0          
C6       C      0.297500000000     0.205500000000     0.727300000000     0          
H2       H      0.306180000000     0.232950000000     0.682970000000     0          
C7       C      0.336800000000     0.167700000000     0.754600000000     0          
H3       H      0.372100000000     0.168540000000     0.726910000000     0          
C8       C      0.175900000000     0.161500000000     0.875400000000     0          
H4       H      0.174270000000     0.129590000000     0.916480000000     0          
H5       H      0.170040000000     0.194860000000     0.911760000000     0          
H6       H      0.147390000000     0.158450000000     0.827770000000     0          


