data_RUBLIL

_audit_creation_method RASPA-1.0
_audit_creation_date 2020-12-14
_audit_author_name 'Rocio Bueno-Perez'

_cell_length_a    23.91
_cell_length_b    23.91
_cell_length_c    16.057
_cell_angle_alpha 90
_cell_angle_beta  90
_cell_angle_gamma 90
_cell_volume      9179.6

_symmetry_cell_setting          triclinic
_symmetry_space_group_name_Hall 'P 1'
_symmetry_space_group_name_H-M  'P 1'
_symmetry_Int_Tables_number     1

_symmetry_equiv_pos_as_xyz 'x,y,z'

loop_
_atom_site_label
_atom_site_type_symbol
_atom_site_fract_x
_atom_site_fract_y
_atom_site_fract_z
_atom_site_charge
O1       O      0.149340000000     0.445170000000     0.582600000000     0          
O2       O      0.082800000000     0.395300000000     0.650600000000     0          
C3       C      0.134000000000     0.407600000000     0.630400000000     0          
C4       C      0.176500000000     0.368400000000     0.667800000000     0          
C5       C      0.163640000000     0.332600000000     0.733200000000     0          
H6       H      0.126700000000     0.332200000000     0.756700000000     0          
C7       C      0.204500000000     0.297300000000     0.765400000000     0          
C8       C      0.258200000000     0.297900000000     0.732200000000     0          
C9       C      0.270990000000     0.333700000000     0.666800000000     0          
H10      H      0.196200000000     0.272300000000     0.811100000000     0          
C11      C      0.230200000000     0.369000000000     0.634600000000     0          
H12      H      0.238900000000     0.393900000000     0.589500000000     0          
C13      C      0.328200000000     0.340300000000     0.621700000000     0          
H14      H      0.328500000000     0.367700000000     0.577900000000     0          
H15      H      0.355300000000     0.350300000000     0.663300000000     0          
H16      H      0.337300000000     0.304300000000     0.599200000000     0          
H17      H      0.107300000000     0.083500000000     0.451200000000     0          
O18      O      0.850660000000     0.554830000000     0.582600000000     0          
O19      O      0.917200000000     0.604700000000     0.650600000000     0          
C20      C      0.866000000000     0.592400000000     0.630400000000     0          
C21      C      0.823500000000     0.631600000000     0.667800000000     0          
C22      C      0.836360000000     0.667400000000     0.733200000000     0          
H23      H      0.873300000000     0.667800000000     0.756700000000     0          
C24      C      0.795500000000     0.702700000000     0.765400000000     0          
C25      C      0.741800000000     0.702100000000     0.732200000000     0          
C26      C      0.729010000000     0.666300000000     0.666800000000     0          
H27      H      0.803800000000     0.727700000000     0.811100000000     0          
C28      C      0.769800000000     0.631000000000     0.634600000000     0          
H29      H      0.761100000000     0.606100000000     0.589500000000     0          
C30      C      0.671800000000     0.659700000000     0.621700000000     0          
H31      H      0.671500000000     0.632300000000     0.577900000000     0          
H32      H      0.644700000000     0.649700000000     0.663300000000     0          
H33      H      0.662700000000     0.695700000000     0.599200000000     0          
H34      H      0.892700000000     0.916500000000     0.451200000000     0          
O35      O      0.554830000000     0.149340000000     0.082600000000     0          
O36      O      0.604700000000     0.082800000000     0.150600000000     0          
C37      C      0.592400000000     0.134000000000     0.130400000000     0          
C38      C      0.631600000000     0.176500000000     0.167800000000     0          
C39      C      0.667400000000     0.163640000000     0.233200000000     0          
H40      H      0.667800000000     0.126700000000     0.256700000000     0          
C41      C      0.702700000000     0.204500000000     0.265400000000     0          
C42      C      0.702100000000     0.258200000000     0.232200000000     0          
C43      C      0.666300000000     0.270990000000     0.166800000000     0          
H44      H      0.727700000000     0.196200000000     0.311100000000     0          
C45      C      0.631000000000     0.230200000000     0.134600000000     0          
H46      H      0.606100000000     0.238900000000     0.089500000000     0          
C47      C      0.659700000000     0.328200000000     0.121700000000     0          
H48      H      0.632300000000     0.328500000000     0.077900000000     0          
H49      H      0.649700000000     0.355300000000     0.163300000000     0          
H50      H      0.695700000000     0.337300000000     0.099200000000     0          
H51      H      0.916500000000     0.107300000000     0.951200000000     0          
O52      O      0.445170000000     0.850660000000     0.082600000000     0          
O53      O      0.395300000000     0.917200000000     0.150600000000     0          
C54      C      0.407600000000     0.866000000000     0.130400000000     0          
C55      C      0.368400000000     0.823500000000     0.167800000000     0          
C56      C      0.332600000000     0.836360000000     0.233200000000     0          
H57      H      0.332200000000     0.873300000000     0.256700000000     0          
C58      C      0.297300000000     0.795500000000     0.265400000000     0          
C59      C      0.297900000000     0.741800000000     0.232200000000     0          
C60      C      0.333700000000     0.729010000000     0.166800000000     0          
H61      H      0.272300000000     0.803800000000     0.311100000000     0          
C62      C      0.369000000000     0.769800000000     0.134600000000     0          
H63      H      0.393900000000     0.761100000000     0.089500000000     0          
C64      C      0.340300000000     0.671800000000     0.121700000000     0          
H65      H      0.367700000000     0.671500000000     0.077900000000     0          
H66      H      0.350300000000     0.644700000000     0.163300000000     0          
H67      H      0.304300000000     0.662700000000     0.099200000000     0          
H68      H      0.083500000000     0.892700000000     0.951200000000     0          
O69      O      0.850660000000     0.445170000000     0.417400000000     0          
O70      O      0.917200000000     0.395300000000     0.349400000000     0          
C71      C      0.866000000000     0.407600000000     0.369600000000     0          
C72      C      0.823500000000     0.368400000000     0.332200000000     0          
C73      C      0.836360000000     0.332600000000     0.266800000000     0          
H74      H      0.873300000000     0.332200000000     0.243300000000     0          
C75      C      0.795500000000     0.297300000000     0.234600000000     0          
C76      C      0.741800000000     0.297900000000     0.267800000000     0          
C77      C      0.729010000000     0.333700000000     0.333200000000     0          
H78      H      0.803800000000     0.272300000000     0.188900000000     0          
C79      C      0.769800000000     0.369000000000     0.365400000000     0          
H80      H      0.761100000000     0.393900000000     0.410500000000     0          
C81      C      0.671800000000     0.340300000000     0.378300000000     0          
H82      H      0.671500000000     0.367700000000     0.422100000000     0          
H83      H      0.644700000000     0.350300000000     0.336700000000     0          
H84      H      0.662700000000     0.304300000000     0.400800000000     0          
H85      H      0.892700000000     0.083500000000     0.548800000000     0          
O86      O      0.149340000000     0.554830000000     0.417400000000     0          
O87      O      0.082800000000     0.604700000000     0.349400000000     0          
C88      C      0.134000000000     0.592400000000     0.369600000000     0          
C89      C      0.176500000000     0.631600000000     0.332200000000     0          
C90      C      0.163640000000     0.667400000000     0.266800000000     0          
H91      H      0.126700000000     0.667800000000     0.243300000000     0          
C92      C      0.204500000000     0.702700000000     0.234600000000     0          
C93      C      0.258200000000     0.702100000000     0.267800000000     0          
C94      C      0.270990000000     0.666300000000     0.333200000000     0          
H95      H      0.196200000000     0.727700000000     0.188900000000     0          
C96      C      0.230200000000     0.631000000000     0.365400000000     0          
H97      H      0.238900000000     0.606100000000     0.410500000000     0          
C98      C      0.328200000000     0.659700000000     0.378300000000     0          
H99      H      0.328500000000     0.632300000000     0.422100000000     0          
H100     H      0.355300000000     0.649700000000     0.336700000000     0          
H101     H      0.337300000000     0.695700000000     0.400800000000     0          
H102     H      0.107300000000     0.916500000000     0.548800000000     0          
O103     O      0.445170000000     0.149340000000     0.917400000000     0          
O104     O      0.395300000000     0.082800000000     0.849400000000     0          
C105     C      0.407600000000     0.134000000000     0.869600000000     0          
C106     C      0.368400000000     0.176500000000     0.832200000000     0          
C107     C      0.332600000000     0.163640000000     0.766800000000     0          
H108     H      0.332200000000     0.126700000000     0.743300000000     0          
C109     C      0.297300000000     0.204500000000     0.734600000000     0          
C110     C      0.297900000000     0.258200000000     0.767800000000     0          
C111     C      0.333700000000     0.270990000000     0.833200000000     0          
H112     H      0.272300000000     0.196200000000     0.688900000000     0          
C113     C      0.369000000000     0.230200000000     0.865400000000     0          
H114     H      0.393900000000     0.238900000000     0.910500000000     0          
C115     C      0.340300000000     0.328200000000     0.878300000000     0          
H116     H      0.367700000000     0.328500000000     0.922100000000     0          
H117     H      0.350300000000     0.355300000000     0.836700000000     0          
H118     H      0.304300000000     0.337300000000     0.900800000000     0          
H119     H      0.083500000000     0.107300000000     0.048800000000     0          
O120     O      0.554830000000     0.850660000000     0.917400000000     0          
O121     O      0.604700000000     0.917200000000     0.849400000000     0          
C122     C      0.592400000000     0.866000000000     0.869600000000     0          
C123     C      0.631600000000     0.823500000000     0.832200000000     0          
C124     C      0.667400000000     0.836360000000     0.766800000000     0          
H125     H      0.667800000000     0.873300000000     0.743300000000     0          
C126     C      0.702700000000     0.795500000000     0.734600000000     0          
C127     C      0.702100000000     0.741800000000     0.767800000000     0          
C128     C      0.666300000000     0.729010000000     0.833200000000     0          
H129     H      0.727700000000     0.803800000000     0.688900000000     0          
C130     C      0.631000000000     0.769800000000     0.865400000000     0          
H131     H      0.606100000000     0.761100000000     0.910500000000     0          
C132     C      0.659700000000     0.671800000000     0.878300000000     0          
H133     H      0.632300000000     0.671500000000     0.922100000000     0          
H134     H      0.649700000000     0.644700000000     0.836700000000     0          
H135     H      0.695700000000     0.662700000000     0.900800000000     0          
H136     H      0.916500000000     0.892700000000     0.048800000000     0          
O137     O      0.850660000000     0.554830000000     0.417400000000     0          
O138     O      0.917200000000     0.604700000000     0.349400000000     0          
C139     C      0.866000000000     0.592400000000     0.369600000000     0          
C140     C      0.823500000000     0.631600000000     0.332200000000     0          
C141     C      0.836360000000     0.667400000000     0.266800000000     0          
H142     H      0.873300000000     0.667800000000     0.243300000000     0          
C143     C      0.795500000000     0.702700000000     0.234600000000     0          
C144     C      0.741800000000     0.702100000000     0.267800000000     0          
C145     C      0.729010000000     0.666300000000     0.333200000000     0          
H146     H      0.803800000000     0.727700000000     0.188900000000     0          
C147     C      0.769800000000     0.631000000000     0.365400000000     0          
H148     H      0.761100000000     0.606100000000     0.410500000000     0          
C149     C      0.671800000000     0.659700000000     0.378300000000     0          
H150     H      0.671500000000     0.632300000000     0.422100000000     0          
H151     H      0.644700000000     0.649700000000     0.336700000000     0          
H152     H      0.662700000000     0.695700000000     0.400800000000     0          
H153     H      0.892700000000     0.916500000000     0.548800000000     0          
O154     O      0.149340000000     0.445170000000     0.417400000000     0          
O155     O      0.082800000000     0.395300000000     0.349400000000     0          
C156     C      0.134000000000     0.407600000000     0.369600000000     0          
C157     C      0.176500000000     0.368400000000     0.332200000000     0          
C158     C      0.163640000000     0.332600000000     0.266800000000     0          
H159     H      0.126700000000     0.332200000000     0.243300000000     0          
C160     C      0.204500000000     0.297300000000     0.234600000000     0          
C161     C      0.258200000000     0.297900000000     0.267800000000     0          
C162     C      0.270990000000     0.333700000000     0.333200000000     0          
H163     H      0.196200000000     0.272300000000     0.188900000000     0          
C164     C      0.230200000000     0.369000000000     0.365400000000     0          
H165     H      0.238900000000     0.393900000000     0.410500000000     0          
C166     C      0.328200000000     0.340300000000     0.378300000000     0          
H167     H      0.328500000000     0.367700000000     0.422100000000     0          
H168     H      0.355300000000     0.350300000000     0.336700000000     0          
H169     H      0.337300000000     0.304300000000     0.400800000000     0          
H170     H      0.107300000000     0.083500000000     0.548800000000     0          
O171     O      0.445170000000     0.850660000000     0.917400000000     0          
O172     O      0.395300000000     0.917200000000     0.849400000000     0          
C173     C      0.407600000000     0.866000000000     0.869600000000     0          
C174     C      0.368400000000     0.823500000000     0.832200000000     0          
C175     C      0.332600000000     0.836360000000     0.766800000000     0          
H176     H      0.332200000000     0.873300000000     0.743300000000     0          
C177     C      0.297300000000     0.795500000000     0.734600000000     0          
C178     C      0.297900000000     0.741800000000     0.767800000000     0          
C179     C      0.333700000000     0.729010000000     0.833200000000     0          
H180     H      0.272300000000     0.803800000000     0.688900000000     0          
C181     C      0.369000000000     0.769800000000     0.865400000000     0          
H182     H      0.393900000000     0.761100000000     0.910500000000     0          
C183     C      0.340300000000     0.671800000000     0.878300000000     0          
H184     H      0.367700000000     0.671500000000     0.922100000000     0          
H185     H      0.350300000000     0.644700000000     0.836700000000     0          
H186     H      0.304300000000     0.662700000000     0.900800000000     0          
H187     H      0.083500000000     0.892700000000     0.048800000000     0          
O188     O      0.554830000000     0.149340000000     0.917400000000     0          
O189     O      0.604700000000     0.082800000000     0.849400000000     0          
C190     C      0.592400000000     0.134000000000     0.869600000000     0          
C191     C      0.631600000000     0.176500000000     0.832200000000     0          
C192     C      0.667400000000     0.163640000000     0.766800000000     0          
H193     H      0.667800000000     0.126700000000     0.743300000000     0          
C194     C      0.702700000000     0.204500000000     0.734600000000     0          
C195     C      0.702100000000     0.258200000000     0.767800000000     0          
C196     C      0.666300000000     0.270990000000     0.833200000000     0          
H197     H      0.727700000000     0.196200000000     0.688900000000     0          
C198     C      0.631000000000     0.230200000000     0.865400000000     0          
H199     H      0.606100000000     0.238900000000     0.910500000000     0          
C200     C      0.659700000000     0.328200000000     0.878300000000     0          
H201     H      0.632300000000     0.328500000000     0.922100000000     0          
H202     H      0.649700000000     0.355300000000     0.836700000000     0          
H203     H      0.695700000000     0.337300000000     0.900800000000     0          
H204     H      0.916500000000     0.107300000000     0.048800000000     0          
O205     O      0.149340000000     0.554830000000     0.582600000000     0          
O206     O      0.082800000000     0.604700000000     0.650600000000     0          
C207     C      0.134000000000     0.592400000000     0.630400000000     0          
C208     C      0.176500000000     0.631600000000     0.667800000000     0          
C209     C      0.163640000000     0.667400000000     0.733200000000     0          
H210     H      0.126700000000     0.667800000000     0.756700000000     0          
C211     C      0.204500000000     0.702700000000     0.765400000000     0          
C212     C      0.258200000000     0.702100000000     0.732200000000     0          
C213     C      0.270990000000     0.666300000000     0.666800000000     0          
H214     H      0.196200000000     0.727700000000     0.811100000000     0          
C215     C      0.230200000000     0.631000000000     0.634600000000     0          
H216     H      0.238900000000     0.606100000000     0.589500000000     0          
C217     C      0.328200000000     0.659700000000     0.621700000000     0          
H218     H      0.328500000000     0.632300000000     0.577900000000     0          
H219     H      0.355300000000     0.649700000000     0.663300000000     0          
H220     H      0.337300000000     0.695700000000     0.599200000000     0          
H221     H      0.107300000000     0.916500000000     0.451200000000     0          
O222     O      0.850660000000     0.445170000000     0.582600000000     0          
O223     O      0.917200000000     0.395300000000     0.650600000000     0          
C224     C      0.866000000000     0.407600000000     0.630400000000     0          
C225     C      0.823500000000     0.368400000000     0.667800000000     0          
C226     C      0.836360000000     0.332600000000     0.733200000000     0          
H227     H      0.873300000000     0.332200000000     0.756700000000     0          
C228     C      0.795500000000     0.297300000000     0.765400000000     0          
C229     C      0.741800000000     0.297900000000     0.732200000000     0          
C230     C      0.729010000000     0.333700000000     0.666800000000     0          
H231     H      0.803800000000     0.272300000000     0.811100000000     0          
C232     C      0.769800000000     0.369000000000     0.634600000000     0          
H233     H      0.761100000000     0.393900000000     0.589500000000     0          
C234     C      0.671800000000     0.340300000000     0.621700000000     0          
H235     H      0.671500000000     0.367700000000     0.577900000000     0          
H236     H      0.644700000000     0.350300000000     0.663300000000     0          
H237     H      0.662700000000     0.304300000000     0.599200000000     0          
H238     H      0.892700000000     0.083500000000     0.451200000000     0          
O239     O      0.554830000000     0.850660000000     0.082600000000     0          
O240     O      0.604700000000     0.917200000000     0.150600000000     0          
C241     C      0.592400000000     0.866000000000     0.130400000000     0          
C242     C      0.631600000000     0.823500000000     0.167800000000     0          
C243     C      0.667400000000     0.836360000000     0.233200000000     0          
H244     H      0.667800000000     0.873300000000     0.256700000000     0          
C245     C      0.702700000000     0.795500000000     0.265400000000     0          
C246     C      0.702100000000     0.741800000000     0.232200000000     0          
C247     C      0.666300000000     0.729010000000     0.166800000000     0          
H248     H      0.727700000000     0.803800000000     0.311100000000     0          
C249     C      0.631000000000     0.769800000000     0.134600000000     0          
H250     H      0.606100000000     0.761100000000     0.089500000000     0          
C251     C      0.659700000000     0.671800000000     0.121700000000     0          
H252     H      0.632300000000     0.671500000000     0.077900000000     0          
H253     H      0.649700000000     0.644700000000     0.163300000000     0          
H254     H      0.695700000000     0.662700000000     0.099200000000     0          
H255     H      0.916500000000     0.892700000000     0.951200000000     0          
O256     O      0.445170000000     0.149340000000     0.082600000000     0          
O257     O      0.395300000000     0.082800000000     0.150600000000     0          
C258     C      0.407600000000     0.134000000000     0.130400000000     0          
C259     C      0.368400000000     0.176500000000     0.167800000000     0          
C260     C      0.332600000000     0.163640000000     0.233200000000     0          
H261     H      0.332200000000     0.126700000000     0.256700000000     0          
C262     C      0.297300000000     0.204500000000     0.265400000000     0          
C263     C      0.297900000000     0.258200000000     0.232200000000     0          
C264     C      0.333700000000     0.270990000000     0.166800000000     0          
H265     H      0.272300000000     0.196200000000     0.311100000000     0          
C266     C      0.369000000000     0.230200000000     0.134600000000     0          
H267     H      0.393900000000     0.238900000000     0.089500000000     0          
C268     C      0.340300000000     0.328200000000     0.121700000000     0          
H269     H      0.367700000000     0.328500000000     0.077900000000     0          
H270     H      0.350300000000     0.355300000000     0.163300000000     0          
H271     H      0.304300000000     0.337300000000     0.099200000000     0          
H272     H      0.083500000000     0.107300000000     0.951200000000     0          
Zr273    Zr     0.102320000000     0.500000000000     0.500000000000     0          
Zr274    Zr     0.897680000000     0.500000000000     0.500000000000     0          
Zr275    Zr     0.500000000000     0.102320000000     0.000000000000     0          
Zr276    Zr     0.500000000000     0.897680000000     0.000000000000     0          
Zr277    Zr     0.000000000000     0.425890000000     0.608600000000     0          
O278     O      0.000000000000     0.327540000000     0.569190000000     0          
C279     C      0.000000000000     0.210230000000     0.574960000000     0          
H280     H      0.000000000000     0.230300000000     0.626700000000     0          
C281     C      0.000000000000     0.152090000000     0.574960000000     0          
H282     H      0.000000000000     0.132200000000     0.626200000000     0          
Zr283    Zr     0.000000000000     0.574110000000     0.608600000000     0          
O284     O      0.000000000000     0.672460000000     0.569190000000     0          
C285     C      0.000000000000     0.789770000000     0.574960000000     0          
H286     H      0.000000000000     0.769700000000     0.626700000000     0          
C287     C      0.000000000000     0.847910000000     0.574960000000     0          
H288     H      0.000000000000     0.867800000000     0.626200000000     0          
Zr289    Zr     0.574110000000     0.000000000000     0.108600000000     0          
O290     O      0.672460000000     0.000000000000     0.069190000000     0          
C291     C      0.789770000000     0.000000000000     0.074960000000     0          
H292     H      0.769700000000     0.000000000000     0.126700000000     0          
C293     C      0.847910000000     0.000000000000     0.074960000000     0          
H294     H      0.867800000000     0.000000000000     0.126200000000     0          
Zr295    Zr     0.425890000000     0.000000000000     0.108600000000     0          
O296     O      0.327540000000     0.000000000000     0.069190000000     0          
C297     C      0.210230000000     0.000000000000     0.074960000000     0          
H298     H      0.230300000000     0.000000000000     0.126700000000     0          
C299     C      0.152090000000     0.000000000000     0.074960000000     0          
H300     H      0.132200000000     0.000000000000     0.126200000000     0          
Zr301    Zr     0.000000000000     0.425890000000     0.391400000000     0          
O302     O      0.000000000000     0.327540000000     0.430810000000     0          
C303     C      0.000000000000     0.210230000000     0.425040000000     0          
H304     H      0.000000000000     0.230300000000     0.373300000000     0          
C305     C      0.000000000000     0.152090000000     0.425040000000     0          
H306     H      0.000000000000     0.132200000000     0.373800000000     0          
Zr307    Zr     0.000000000000     0.574110000000     0.391400000000     0          
O308     O      0.000000000000     0.672460000000     0.430810000000     0          
C309     C      0.000000000000     0.789770000000     0.425040000000     0          
H310     H      0.000000000000     0.769700000000     0.373300000000     0          
C311     C      0.000000000000     0.847910000000     0.425040000000     0          
H312     H      0.000000000000     0.867800000000     0.373800000000     0          
Zr313    Zr     0.425890000000     0.000000000000     0.891400000000     0          
O314     O      0.327540000000     0.000000000000     0.930810000000     0          
C315     C      0.210230000000     0.000000000000     0.925040000000     0          
H316     H      0.230300000000     0.000000000000     0.873300000000     0          
C317     C      0.152090000000     0.000000000000     0.925040000000     0          
H318     H      0.132200000000     0.000000000000     0.873800000000     0          
Zr319    Zr     0.574110000000     0.000000000000     0.891400000000     0          
O320     O      0.672460000000     0.000000000000     0.930810000000     0          
C321     C      0.789770000000     0.000000000000     0.925040000000     0          
H322     H      0.769700000000     0.000000000000     0.873300000000     0          
C323     C      0.847910000000     0.000000000000     0.925040000000     0          
H324     H      0.867800000000     0.000000000000     0.873800000000     0          
C325     C      0.050310000000     0.029100000000     0.500000000000     0          
C326     C      0.105110000000     0.060380000000     0.500000000000     0          
H327     H      0.135600000000     0.034300000000     0.500000000000     0          
O328     O      0.056900000000     0.415600000000     0.500000000000     0          
H329     H      0.078500000000     0.382600000000     0.500000000000     0          
C330     C      0.949690000000     0.970900000000     0.500000000000     0          
C331     C      0.894890000000     0.939620000000     0.500000000000     0          
H332     H      0.864400000000     0.965700000000     0.500000000000     0          
O333     O      0.943100000000     0.584400000000     0.500000000000     0          
H334     H      0.921500000000     0.617400000000     0.500000000000     0          
C335     C      0.970900000000     0.050310000000     0.000000000000     0          
C336     C      0.939620000000     0.105110000000     0.000000000000     0          
H337     H      0.965700000000     0.135600000000     0.000000000000     0          
O338     O      0.584400000000     0.056900000000     0.000000000000     0          
H339     H      0.617400000000     0.078500000000     0.000000000000     0          
C340     C      0.029100000000     0.949690000000     0.000000000000     0          
C341     C      0.060380000000     0.894890000000     0.000000000000     0          
H342     H      0.034300000000     0.864400000000     0.000000000000     0          
O343     O      0.415600000000     0.943100000000     0.000000000000     0          
H344     H      0.382600000000     0.921500000000     0.000000000000     0          
C345     C      0.949690000000     0.029100000000     0.500000000000     0          
C346     C      0.894890000000     0.060380000000     0.500000000000     0          
H347     H      0.864400000000     0.034300000000     0.500000000000     0          
O348     O      0.943100000000     0.415600000000     0.500000000000     0          
H349     H      0.921500000000     0.382600000000     0.500000000000     0          
C350     C      0.050310000000     0.970900000000     0.500000000000     0          
C351     C      0.105110000000     0.939620000000     0.500000000000     0          
H352     H      0.135600000000     0.965700000000     0.500000000000     0          
O353     O      0.056900000000     0.584400000000     0.500000000000     0          
H354     H      0.078500000000     0.617400000000     0.500000000000     0          
C355     C      0.029100000000     0.050310000000     0.000000000000     0          
C356     C      0.060380000000     0.105110000000     0.000000000000     0          
H357     H      0.034300000000     0.135600000000     0.000000000000     0          
O358     O      0.415600000000     0.056900000000     0.000000000000     0          
H359     H      0.382600000000     0.078500000000     0.000000000000     0          
C360     C      0.970900000000     0.949690000000     0.000000000000     0          
C361     C      0.939620000000     0.894890000000     0.000000000000     0          
H362     H      0.965700000000     0.864400000000     0.000000000000     0          
O363     O      0.584400000000     0.943100000000     0.000000000000     0          
H364     H      0.617400000000     0.921500000000     0.000000000000     0          
O365     O      0.053600000000     0.500000000000     0.626200000000     0          
O366     O      0.946400000000     0.500000000000     0.626200000000     0          
O367     O      0.500000000000     0.053600000000     0.126200000000     0          
O368     O      0.500000000000     0.946400000000     0.126200000000     0          
O369     O      0.946400000000     0.500000000000     0.373800000000     0          
O370     O      0.053600000000     0.500000000000     0.373800000000     0          
O371     O      0.500000000000     0.053600000000     0.873800000000     0          
O372     O      0.500000000000     0.946400000000     0.873800000000     0          
C373     C      0.000000000000     0.303380000000     0.500000000000     0          
C374     C      0.000000000000     0.239330000000     0.500000000000     0          
C375     C      0.000000000000     0.122900000000     0.500000000000     0          
C376     C      0.000000000000     0.058460000000     0.500000000000     0          
C377     C      0.000000000000     0.696620000000     0.500000000000     0          
C378     C      0.000000000000     0.760670000000     0.500000000000     0          
C379     C      0.000000000000     0.877100000000     0.500000000000     0          
C380     C      0.000000000000     0.941540000000     0.500000000000     0          
C381     C      0.696620000000     0.000000000000     0.000000000000     0          
C382     C      0.760670000000     0.000000000000     0.000000000000     0          
C383     C      0.877100000000     0.000000000000     0.000000000000     0          
C384     C      0.941540000000     0.000000000000     0.000000000000     0          
C385     C      0.303380000000     0.000000000000     0.000000000000     0          
C386     C      0.239330000000     0.000000000000     0.000000000000     0          
C387     C      0.122900000000     0.000000000000     0.000000000000     0          
C388     C      0.058460000000     0.000000000000     0.000000000000     0          


