data_RUBTAK03

_audit_creation_method RASPA-1.0
_audit_creation_date 2020-11-2
_audit_author_name 'Rocio Bueno-Perez'

_cell_length_a    20.7465
_cell_length_b    20.7465
_cell_length_c    20.7465
_cell_angle_alpha 90
_cell_angle_beta  90
_cell_angle_gamma 90
_cell_volume      8929.65

_symmetry_cell_setting          cubic
_symmetry_space_group_name_Hall 'P 1'
_symmetry_space_group_name_H-M  'P 1'
_symmetry_Int_Tables_number     1

_symmetry_equiv_pos_as_xyz 'x,y,z'

loop_
_atom_site_label
_atom_site_type_symbol
_atom_site_fract_x
_atom_site_fract_y
_atom_site_fract_z
_atom_site_charge
Zr1      Zr     0.000000000000     0.000000000000     0.119750000000     0          
O1       O      0.094000000000     0.000000000000     0.170230000000     0          
C2       C      0.267120000000     0.000000000000     0.185340000000     0          
H1       H      0.278900000000     0.000000000000     0.141100000000     0          
C1       C      0.202790000000     0.000000000000     0.202790000000     0          
C3       C      0.151790000000     0.000000000000     0.151790000000     0          
O4?      O      0.932600000000     0.932600000000     0.067400000000     0          
O1       O      0.000000000000     0.094000000000     0.170230000000     0          
C2       C      0.000000000000     0.267120000000     0.185340000000     0          
H1       H      0.000000000000     0.278900000000     0.141100000000     0          
C1       C      0.000000000000     0.202790000000     0.202790000000     0          
C3       C      0.000000000000     0.151790000000     0.151790000000     0          
O4?      O      0.067400000000     0.932600000000     0.067400000000     0          
O1       O      0.906000000000     0.000000000000     0.170230000000     0          
C2       C      0.732880000000     0.000000000000     0.185340000000     0          
H1       H      0.721100000000     0.000000000000     0.141100000000     0          
C1       C      0.797210000000     0.000000000000     0.202790000000     0          
C3       C      0.848210000000     0.000000000000     0.151790000000     0          
O4?      O      0.067400000000     0.067400000000     0.067400000000     0          
O1       O      0.000000000000     0.906000000000     0.170230000000     0          
C2       C      0.000000000000     0.732880000000     0.185340000000     0          
H1       H      0.000000000000     0.721100000000     0.141100000000     0          
C1       C      0.000000000000     0.797210000000     0.202790000000     0          
C3       C      0.000000000000     0.848210000000     0.151790000000     0          
O4?      O      0.932600000000     0.067400000000     0.067400000000     0          
Zr1      Zr     0.000000000000     0.000000000000     0.880250000000     0          
O1       O      0.094000000000     0.000000000000     0.829770000000     0          
C2       C      0.267120000000     0.000000000000     0.814660000000     0          
H1       H      0.278900000000     0.000000000000     0.858900000000     0          
C1       C      0.202790000000     0.000000000000     0.797210000000     0          
C3       C      0.151790000000     0.000000000000     0.848210000000     0          
O4?      O      0.932600000000     0.067400000000     0.932600000000     0          
O1       O      0.000000000000     0.094000000000     0.829770000000     0          
C2       C      0.000000000000     0.267120000000     0.814660000000     0          
H1       H      0.000000000000     0.278900000000     0.858900000000     0          
C1       C      0.000000000000     0.202790000000     0.797210000000     0          
C3       C      0.000000000000     0.151790000000     0.848210000000     0          
O4?      O      0.932600000000     0.932600000000     0.932600000000     0          
O1       O      0.906000000000     0.000000000000     0.829770000000     0          
C2       C      0.732880000000     0.000000000000     0.814660000000     0          
H1       H      0.721100000000     0.000000000000     0.858900000000     0          
C1       C      0.797210000000     0.000000000000     0.797210000000     0          
C3       C      0.848210000000     0.000000000000     0.848210000000     0          
O4?      O      0.067400000000     0.932600000000     0.932600000000     0          
O1       O      0.000000000000     0.906000000000     0.829770000000     0          
C2       C      0.000000000000     0.732880000000     0.814660000000     0          
H1       H      0.000000000000     0.721100000000     0.858900000000     0          
C1       C      0.000000000000     0.797210000000     0.797210000000     0          
C3       C      0.000000000000     0.848210000000     0.848210000000     0          
O4?      O      0.067400000000     0.067400000000     0.932600000000     0          
Zr1      Zr     0.119750000000     0.000000000000     0.000000000000     0          
O1       O      0.170230000000     0.094000000000     0.000000000000     0          
C2       C      0.185340000000     0.267120000000     0.000000000000     0          
H1       H      0.141100000000     0.278900000000     0.000000000000     0          
C1       C      0.202790000000     0.202790000000     0.000000000000     0          
C3       C      0.151790000000     0.151790000000     0.000000000000     0          
Zr1      Zr     0.000000000000     0.119750000000     0.000000000000     0          
O1       O      0.906000000000     0.170230000000     0.000000000000     0          
C2       C      0.732880000000     0.185340000000     0.000000000000     0          
H1       H      0.721100000000     0.141100000000     0.000000000000     0          
C1       C      0.797210000000     0.202790000000     0.000000000000     0          
C3       C      0.848210000000     0.151790000000     0.000000000000     0          
Zr1      Zr     0.880250000000     0.000000000000     0.000000000000     0          
O1       O      0.829770000000     0.906000000000     0.000000000000     0          
C2       C      0.814660000000     0.732880000000     0.000000000000     0          
H1       H      0.858900000000     0.721100000000     0.000000000000     0          
C1       C      0.797210000000     0.797210000000     0.000000000000     0          
C3       C      0.848210000000     0.848210000000     0.000000000000     0          
Zr1      Zr     0.000000000000     0.880250000000     0.000000000000     0          
O1       O      0.094000000000     0.829770000000     0.000000000000     0          
C2       C      0.267120000000     0.814660000000     0.000000000000     0          
H1       H      0.278900000000     0.858900000000     0.000000000000     0          
C1       C      0.202790000000     0.797210000000     0.000000000000     0          
C3       C      0.151790000000     0.848210000000     0.000000000000     0          
O1       O      0.170230000000     0.906000000000     0.000000000000     0          
C2       C      0.185340000000     0.732880000000     0.000000000000     0          
H1       H      0.141100000000     0.721100000000     0.000000000000     0          
O1       O      0.094000000000     0.170230000000     0.000000000000     0          
C2       C      0.267120000000     0.185340000000     0.000000000000     0          
H1       H      0.278900000000     0.141100000000     0.000000000000     0          
O1       O      0.829770000000     0.094000000000     0.000000000000     0          
C2       C      0.814660000000     0.267120000000     0.000000000000     0          
H1       H      0.858900000000     0.278900000000     0.000000000000     0          
O1       O      0.906000000000     0.829770000000     0.000000000000     0          
C2       C      0.732880000000     0.814660000000     0.000000000000     0          
H1       H      0.721100000000     0.858900000000     0.000000000000     0          
O1       O      0.000000000000     0.170230000000     0.094000000000     0          
C2       C      0.000000000000     0.185340000000     0.267120000000     0          
H1       H      0.000000000000     0.141100000000     0.278900000000     0          
O1       O      0.000000000000     0.829770000000     0.906000000000     0          
C2       C      0.000000000000     0.814660000000     0.732880000000     0          
H1       H      0.000000000000     0.858900000000     0.721100000000     0          
O1       O      0.170230000000     0.000000000000     0.906000000000     0          
C2       C      0.185340000000     0.000000000000     0.732880000000     0          
H1       H      0.141100000000     0.000000000000     0.721100000000     0          
O1       O      0.000000000000     0.170230000000     0.906000000000     0          
C2       C      0.000000000000     0.185340000000     0.732880000000     0          
H1       H      0.000000000000     0.141100000000     0.721100000000     0          
O1       O      0.829770000000     0.000000000000     0.906000000000     0          
C2       C      0.814660000000     0.000000000000     0.732880000000     0          
H1       H      0.858900000000     0.000000000000     0.721100000000     0          
O1       O      0.000000000000     0.829770000000     0.094000000000     0          
C2       C      0.000000000000     0.814660000000     0.267120000000     0          
H1       H      0.000000000000     0.858900000000     0.278900000000     0          
O1       O      0.170230000000     0.000000000000     0.094000000000     0          
C2       C      0.185340000000     0.000000000000     0.267120000000     0          
H1       H      0.141100000000     0.000000000000     0.278900000000     0          
O1       O      0.829770000000     0.000000000000     0.094000000000     0          
C2       C      0.814660000000     0.000000000000     0.267120000000     0          
H1       H      0.858900000000     0.000000000000     0.278900000000     0          
Zr1      Zr     0.000000000000     0.500000000000     0.619750000000     0          
O1       O      0.094000000000     0.500000000000     0.670230000000     0          
C2       C      0.267120000000     0.500000000000     0.685340000000     0          
H1       H      0.278900000000     0.500000000000     0.641100000000     0          
C1       C      0.202790000000     0.500000000000     0.702790000000     0          
C3       C      0.151790000000     0.500000000000     0.651790000000     0          
O4?      O      0.932600000000     0.432600000000     0.567400000000     0          
O1       O      0.000000000000     0.594000000000     0.670230000000     0          
C2       C      0.000000000000     0.767120000000     0.685340000000     0          
H1       H      0.000000000000     0.778900000000     0.641100000000     0          
C1       C      0.000000000000     0.702790000000     0.702790000000     0          
C3       C      0.000000000000     0.651790000000     0.651790000000     0          
O4?      O      0.067400000000     0.432600000000     0.567400000000     0          
O1       O      0.906000000000     0.500000000000     0.670230000000     0          
C2       C      0.732880000000     0.500000000000     0.685340000000     0          
H1       H      0.721100000000     0.500000000000     0.641100000000     0          
C1       C      0.797210000000     0.500000000000     0.702790000000     0          
C3       C      0.848210000000     0.500000000000     0.651790000000     0          
O4?      O      0.067400000000     0.567400000000     0.567400000000     0          
O1       O      0.000000000000     0.406000000000     0.670230000000     0          
C2       C      0.000000000000     0.232880000000     0.685340000000     0          
H1       H      0.000000000000     0.221100000000     0.641100000000     0          
C1       C      0.000000000000     0.297210000000     0.702790000000     0          
C3       C      0.000000000000     0.348210000000     0.651790000000     0          
O4?      O      0.932600000000     0.567400000000     0.567400000000     0          
Zr1      Zr     0.000000000000     0.500000000000     0.380250000000     0          
O1       O      0.094000000000     0.500000000000     0.329770000000     0          
C2       C      0.267120000000     0.500000000000     0.314660000000     0          
H1       H      0.278900000000     0.500000000000     0.358900000000     0          
C1       C      0.202790000000     0.500000000000     0.297210000000     0          
C3       C      0.151790000000     0.500000000000     0.348210000000     0          
O4?      O      0.932600000000     0.567400000000     0.432600000000     0          
O1       O      0.000000000000     0.594000000000     0.329770000000     0          
C2       C      0.000000000000     0.767120000000     0.314660000000     0          
H1       H      0.000000000000     0.778900000000     0.358900000000     0          
C1       C      0.000000000000     0.702790000000     0.297210000000     0          
C3       C      0.000000000000     0.651790000000     0.348210000000     0          
O4?      O      0.932600000000     0.432600000000     0.432600000000     0          
O1       O      0.906000000000     0.500000000000     0.329770000000     0          
C2       C      0.732880000000     0.500000000000     0.314660000000     0          
H1       H      0.721100000000     0.500000000000     0.358900000000     0          
C1       C      0.797210000000     0.500000000000     0.297210000000     0          
C3       C      0.848210000000     0.500000000000     0.348210000000     0          
O4?      O      0.067400000000     0.432600000000     0.432600000000     0          
O1       O      0.000000000000     0.406000000000     0.329770000000     0          
C2       C      0.000000000000     0.232880000000     0.314660000000     0          
H1       H      0.000000000000     0.221100000000     0.358900000000     0          
C1       C      0.000000000000     0.297210000000     0.297210000000     0          
C3       C      0.000000000000     0.348210000000     0.348210000000     0          
O4?      O      0.067400000000     0.567400000000     0.432600000000     0          
Zr1      Zr     0.119750000000     0.500000000000     0.500000000000     0          
O1       O      0.170230000000     0.594000000000     0.500000000000     0          
C2       C      0.185340000000     0.767120000000     0.500000000000     0          
H1       H      0.141100000000     0.778900000000     0.500000000000     0          
C1       C      0.202790000000     0.702790000000     0.500000000000     0          
C3       C      0.151790000000     0.651790000000     0.500000000000     0          
Zr1      Zr     0.000000000000     0.619750000000     0.500000000000     0          
O1       O      0.906000000000     0.670230000000     0.500000000000     0          
C2       C      0.732880000000     0.685340000000     0.500000000000     0          
H1       H      0.721100000000     0.641100000000     0.500000000000     0          
C1       C      0.797210000000     0.702790000000     0.500000000000     0          
C3       C      0.848210000000     0.651790000000     0.500000000000     0          
Zr1      Zr     0.880250000000     0.500000000000     0.500000000000     0          
O1       O      0.829770000000     0.406000000000     0.500000000000     0          
C2       C      0.814660000000     0.232880000000     0.500000000000     0          
H1       H      0.858900000000     0.221100000000     0.500000000000     0          
C1       C      0.797210000000     0.297210000000     0.500000000000     0          
C3       C      0.848210000000     0.348210000000     0.500000000000     0          
Zr1      Zr     0.000000000000     0.380250000000     0.500000000000     0          
O1       O      0.094000000000     0.329770000000     0.500000000000     0          
C2       C      0.267120000000     0.314660000000     0.500000000000     0          
H1       H      0.278900000000     0.358900000000     0.500000000000     0          
C1       C      0.202790000000     0.297210000000     0.500000000000     0          
C3       C      0.151790000000     0.348210000000     0.500000000000     0          
O1       O      0.170230000000     0.406000000000     0.500000000000     0          
C2       C      0.185340000000     0.232880000000     0.500000000000     0          
H1       H      0.141100000000     0.221100000000     0.500000000000     0          
O1       O      0.094000000000     0.670230000000     0.500000000000     0          
C2       C      0.267120000000     0.685340000000     0.500000000000     0          
H1       H      0.278900000000     0.641100000000     0.500000000000     0          
O1       O      0.829770000000     0.594000000000     0.500000000000     0          
C2       C      0.814660000000     0.767120000000     0.500000000000     0          
H1       H      0.858900000000     0.778900000000     0.500000000000     0          
O1       O      0.906000000000     0.329770000000     0.500000000000     0          
C2       C      0.732880000000     0.314660000000     0.500000000000     0          
H1       H      0.721100000000     0.358900000000     0.500000000000     0          
O1       O      0.000000000000     0.670230000000     0.594000000000     0          
C2       C      0.000000000000     0.685340000000     0.767120000000     0          
H1       H      0.000000000000     0.641100000000     0.778900000000     0          
O1       O      0.000000000000     0.329770000000     0.406000000000     0          
C2       C      0.000000000000     0.314660000000     0.232880000000     0          
H1       H      0.000000000000     0.358900000000     0.221100000000     0          
O1       O      0.170230000000     0.500000000000     0.406000000000     0          
C2       C      0.185340000000     0.500000000000     0.232880000000     0          
H1       H      0.141100000000     0.500000000000     0.221100000000     0          
O1       O      0.000000000000     0.670230000000     0.406000000000     0          
C2       C      0.000000000000     0.685340000000     0.232880000000     0          
H1       H      0.000000000000     0.641100000000     0.221100000000     0          
O1       O      0.829770000000     0.500000000000     0.406000000000     0          
C2       C      0.814660000000     0.500000000000     0.232880000000     0          
H1       H      0.858900000000     0.500000000000     0.221100000000     0          
O1       O      0.000000000000     0.329770000000     0.594000000000     0          
C2       C      0.000000000000     0.314660000000     0.767120000000     0          
H1       H      0.000000000000     0.358900000000     0.778900000000     0          
O1       O      0.170230000000     0.500000000000     0.594000000000     0          
C2       C      0.185340000000     0.500000000000     0.767120000000     0          
H1       H      0.141100000000     0.500000000000     0.778900000000     0          
O1       O      0.829770000000     0.500000000000     0.594000000000     0          
C2       C      0.814660000000     0.500000000000     0.767120000000     0          
H1       H      0.858900000000     0.500000000000     0.778900000000     0          
Zr1      Zr     0.500000000000     0.000000000000     0.619750000000     0          
O1       O      0.594000000000     0.000000000000     0.670230000000     0          
C2       C      0.767120000000     0.000000000000     0.685340000000     0          
H1       H      0.778900000000     0.000000000000     0.641100000000     0          
C1       C      0.702790000000     0.000000000000     0.702790000000     0          
C3       C      0.651790000000     0.000000000000     0.651790000000     0          
O4?      O      0.432600000000     0.932600000000     0.567400000000     0          
O1       O      0.500000000000     0.094000000000     0.670230000000     0          
C2       C      0.500000000000     0.267120000000     0.685340000000     0          
H1       H      0.500000000000     0.278900000000     0.641100000000     0          
C1       C      0.500000000000     0.202790000000     0.702790000000     0          
C3       C      0.500000000000     0.151790000000     0.651790000000     0          
O4?      O      0.567400000000     0.932600000000     0.567400000000     0          
O1       O      0.406000000000     0.000000000000     0.670230000000     0          
C2       C      0.232880000000     0.000000000000     0.685340000000     0          
H1       H      0.221100000000     0.000000000000     0.641100000000     0          
C1       C      0.297210000000     0.000000000000     0.702790000000     0          
C3       C      0.348210000000     0.000000000000     0.651790000000     0          
O4?      O      0.567400000000     0.067400000000     0.567400000000     0          
O1       O      0.500000000000     0.906000000000     0.670230000000     0          
C2       C      0.500000000000     0.732880000000     0.685340000000     0          
H1       H      0.500000000000     0.721100000000     0.641100000000     0          
C1       C      0.500000000000     0.797210000000     0.702790000000     0          
C3       C      0.500000000000     0.848210000000     0.651790000000     0          
O4?      O      0.432600000000     0.067400000000     0.567400000000     0          
Zr1      Zr     0.500000000000     0.000000000000     0.380250000000     0          
O1       O      0.594000000000     0.000000000000     0.329770000000     0          
C2       C      0.767120000000     0.000000000000     0.314660000000     0          
H1       H      0.778900000000     0.000000000000     0.358900000000     0          
C1       C      0.702790000000     0.000000000000     0.297210000000     0          
C3       C      0.651790000000     0.000000000000     0.348210000000     0          
O4?      O      0.432600000000     0.067400000000     0.432600000000     0          
O1       O      0.500000000000     0.094000000000     0.329770000000     0          
C2       C      0.500000000000     0.267120000000     0.314660000000     0          
H1       H      0.500000000000     0.278900000000     0.358900000000     0          
C1       C      0.500000000000     0.202790000000     0.297210000000     0          
C3       C      0.500000000000     0.151790000000     0.348210000000     0          
O4?      O      0.432600000000     0.932600000000     0.432600000000     0          
O1       O      0.406000000000     0.000000000000     0.329770000000     0          
C2       C      0.232880000000     0.000000000000     0.314660000000     0          
H1       H      0.221100000000     0.000000000000     0.358900000000     0          
C1       C      0.297210000000     0.000000000000     0.297210000000     0          
C3       C      0.348210000000     0.000000000000     0.348210000000     0          
O4?      O      0.567400000000     0.932600000000     0.432600000000     0          
O1       O      0.500000000000     0.906000000000     0.329770000000     0          
C2       C      0.500000000000     0.732880000000     0.314660000000     0          
H1       H      0.500000000000     0.721100000000     0.358900000000     0          
C1       C      0.500000000000     0.797210000000     0.297210000000     0          
C3       C      0.500000000000     0.848210000000     0.348210000000     0          
O4?      O      0.567400000000     0.067400000000     0.432600000000     0          
Zr1      Zr     0.619750000000     0.000000000000     0.500000000000     0          
O1       O      0.670230000000     0.094000000000     0.500000000000     0          
C2       C      0.685340000000     0.267120000000     0.500000000000     0          
H1       H      0.641100000000     0.278900000000     0.500000000000     0          
C1       C      0.702790000000     0.202790000000     0.500000000000     0          
C3       C      0.651790000000     0.151790000000     0.500000000000     0          
Zr1      Zr     0.500000000000     0.119750000000     0.500000000000     0          
O1       O      0.406000000000     0.170230000000     0.500000000000     0          
C2       C      0.232880000000     0.185340000000     0.500000000000     0          
H1       H      0.221100000000     0.141100000000     0.500000000000     0          
C1       C      0.297210000000     0.202790000000     0.500000000000     0          
C3       C      0.348210000000     0.151790000000     0.500000000000     0          
Zr1      Zr     0.380250000000     0.000000000000     0.500000000000     0          
O1       O      0.329770000000     0.906000000000     0.500000000000     0          
C2       C      0.314660000000     0.732880000000     0.500000000000     0          
H1       H      0.358900000000     0.721100000000     0.500000000000     0          
C1       C      0.297210000000     0.797210000000     0.500000000000     0          
C3       C      0.348210000000     0.848210000000     0.500000000000     0          
Zr1      Zr     0.500000000000     0.880250000000     0.500000000000     0          
O1       O      0.594000000000     0.829770000000     0.500000000000     0          
C2       C      0.767120000000     0.814660000000     0.500000000000     0          
H1       H      0.778900000000     0.858900000000     0.500000000000     0          
C1       C      0.702790000000     0.797210000000     0.500000000000     0          
C3       C      0.651790000000     0.848210000000     0.500000000000     0          
O1       O      0.670230000000     0.906000000000     0.500000000000     0          
C2       C      0.685340000000     0.732880000000     0.500000000000     0          
H1       H      0.641100000000     0.721100000000     0.500000000000     0          
O1       O      0.594000000000     0.170230000000     0.500000000000     0          
C2       C      0.767120000000     0.185340000000     0.500000000000     0          
H1       H      0.778900000000     0.141100000000     0.500000000000     0          
O1       O      0.329770000000     0.094000000000     0.500000000000     0          
C2       C      0.314660000000     0.267120000000     0.500000000000     0          
H1       H      0.358900000000     0.278900000000     0.500000000000     0          
O1       O      0.406000000000     0.829770000000     0.500000000000     0          
C2       C      0.232880000000     0.814660000000     0.500000000000     0          
H1       H      0.221100000000     0.858900000000     0.500000000000     0          
O1       O      0.500000000000     0.170230000000     0.594000000000     0          
C2       C      0.500000000000     0.185340000000     0.767120000000     0          
H1       H      0.500000000000     0.141100000000     0.778900000000     0          
O1       O      0.500000000000     0.829770000000     0.406000000000     0          
C2       C      0.500000000000     0.814660000000     0.232880000000     0          
H1       H      0.500000000000     0.858900000000     0.221100000000     0          
O1       O      0.670230000000     0.000000000000     0.406000000000     0          
C2       C      0.685340000000     0.000000000000     0.232880000000     0          
H1       H      0.641100000000     0.000000000000     0.221100000000     0          
O1       O      0.500000000000     0.170230000000     0.406000000000     0          
C2       C      0.500000000000     0.185340000000     0.232880000000     0          
H1       H      0.500000000000     0.141100000000     0.221100000000     0          
O1       O      0.329770000000     0.000000000000     0.406000000000     0          
C2       C      0.314660000000     0.000000000000     0.232880000000     0          
H1       H      0.358900000000     0.000000000000     0.221100000000     0          
O1       O      0.500000000000     0.829770000000     0.594000000000     0          
C2       C      0.500000000000     0.814660000000     0.767120000000     0          
H1       H      0.500000000000     0.858900000000     0.778900000000     0          
O1       O      0.670230000000     0.000000000000     0.594000000000     0          
C2       C      0.685340000000     0.000000000000     0.767120000000     0          
H1       H      0.641100000000     0.000000000000     0.778900000000     0          
O1       O      0.329770000000     0.000000000000     0.594000000000     0          
C2       C      0.314660000000     0.000000000000     0.767120000000     0          
H1       H      0.358900000000     0.000000000000     0.778900000000     0          
Zr1      Zr     0.500000000000     0.500000000000     0.119750000000     0          
O1       O      0.594000000000     0.500000000000     0.170230000000     0          
C2       C      0.767120000000     0.500000000000     0.185340000000     0          
H1       H      0.778900000000     0.500000000000     0.141100000000     0          
C1       C      0.702790000000     0.500000000000     0.202790000000     0          
C3       C      0.651790000000     0.500000000000     0.151790000000     0          
O4?      O      0.432600000000     0.432600000000     0.067400000000     0          
O1       O      0.500000000000     0.594000000000     0.170230000000     0          
C2       C      0.500000000000     0.767120000000     0.185340000000     0          
H1       H      0.500000000000     0.778900000000     0.141100000000     0          
C1       C      0.500000000000     0.702790000000     0.202790000000     0          
C3       C      0.500000000000     0.651790000000     0.151790000000     0          
O4?      O      0.567400000000     0.432600000000     0.067400000000     0          
O1       O      0.406000000000     0.500000000000     0.170230000000     0          
C2       C      0.232880000000     0.500000000000     0.185340000000     0          
H1       H      0.221100000000     0.500000000000     0.141100000000     0          
C1       C      0.297210000000     0.500000000000     0.202790000000     0          
C3       C      0.348210000000     0.500000000000     0.151790000000     0          
O4?      O      0.567400000000     0.567400000000     0.067400000000     0          
O1       O      0.500000000000     0.406000000000     0.170230000000     0          
C2       C      0.500000000000     0.232880000000     0.185340000000     0          
H1       H      0.500000000000     0.221100000000     0.141100000000     0          
C1       C      0.500000000000     0.297210000000     0.202790000000     0          
C3       C      0.500000000000     0.348210000000     0.151790000000     0          
O4?      O      0.432600000000     0.567400000000     0.067400000000     0          
Zr1      Zr     0.500000000000     0.500000000000     0.880250000000     0          
O1       O      0.594000000000     0.500000000000     0.829770000000     0          
C2       C      0.767120000000     0.500000000000     0.814660000000     0          
H1       H      0.778900000000     0.500000000000     0.858900000000     0          
C1       C      0.702790000000     0.500000000000     0.797210000000     0          
C3       C      0.651790000000     0.500000000000     0.848210000000     0          
O4?      O      0.432600000000     0.567400000000     0.932600000000     0          
O1       O      0.500000000000     0.594000000000     0.829770000000     0          
C2       C      0.500000000000     0.767120000000     0.814660000000     0          
H1       H      0.500000000000     0.778900000000     0.858900000000     0          
C1       C      0.500000000000     0.702790000000     0.797210000000     0          
C3       C      0.500000000000     0.651790000000     0.848210000000     0          
O4?      O      0.432600000000     0.432600000000     0.932600000000     0          
O1       O      0.406000000000     0.500000000000     0.829770000000     0          
C2       C      0.232880000000     0.500000000000     0.814660000000     0          
H1       H      0.221100000000     0.500000000000     0.858900000000     0          
C1       C      0.297210000000     0.500000000000     0.797210000000     0          
C3       C      0.348210000000     0.500000000000     0.848210000000     0          
O4?      O      0.567400000000     0.432600000000     0.932600000000     0          
O1       O      0.500000000000     0.406000000000     0.829770000000     0          
C2       C      0.500000000000     0.232880000000     0.814660000000     0          
H1       H      0.500000000000     0.221100000000     0.858900000000     0          
C1       C      0.500000000000     0.297210000000     0.797210000000     0          
C3       C      0.500000000000     0.348210000000     0.848210000000     0          
O4?      O      0.567400000000     0.567400000000     0.932600000000     0          
Zr1      Zr     0.619750000000     0.500000000000     0.000000000000     0          
O1       O      0.670230000000     0.594000000000     0.000000000000     0          
C2       C      0.685340000000     0.767120000000     0.000000000000     0          
H1       H      0.641100000000     0.778900000000     0.000000000000     0          
C1       C      0.702790000000     0.702790000000     0.000000000000     0          
C3       C      0.651790000000     0.651790000000     0.000000000000     0          
Zr1      Zr     0.500000000000     0.619750000000     0.000000000000     0          
O1       O      0.406000000000     0.670230000000     0.000000000000     0          
C2       C      0.232880000000     0.685340000000     0.000000000000     0          
H1       H      0.221100000000     0.641100000000     0.000000000000     0          
C1       C      0.297210000000     0.702790000000     0.000000000000     0          
C3       C      0.348210000000     0.651790000000     0.000000000000     0          
Zr1      Zr     0.380250000000     0.500000000000     0.000000000000     0          
O1       O      0.329770000000     0.406000000000     0.000000000000     0          
C2       C      0.314660000000     0.232880000000     0.000000000000     0          
H1       H      0.358900000000     0.221100000000     0.000000000000     0          
C1       C      0.297210000000     0.297210000000     0.000000000000     0          
C3       C      0.348210000000     0.348210000000     0.000000000000     0          
Zr1      Zr     0.500000000000     0.380250000000     0.000000000000     0          
O1       O      0.594000000000     0.329770000000     0.000000000000     0          
C2       C      0.767120000000     0.314660000000     0.000000000000     0          
H1       H      0.778900000000     0.358900000000     0.000000000000     0          
C1       C      0.702790000000     0.297210000000     0.000000000000     0          
C3       C      0.651790000000     0.348210000000     0.000000000000     0          
O1       O      0.670230000000     0.406000000000     0.000000000000     0          
C2       C      0.685340000000     0.232880000000     0.000000000000     0          
H1       H      0.641100000000     0.221100000000     0.000000000000     0          
O1       O      0.594000000000     0.670230000000     0.000000000000     0          
C2       C      0.767120000000     0.685340000000     0.000000000000     0          
H1       H      0.778900000000     0.641100000000     0.000000000000     0          
O1       O      0.329770000000     0.594000000000     0.000000000000     0          
C2       C      0.314660000000     0.767120000000     0.000000000000     0          
H1       H      0.358900000000     0.778900000000     0.000000000000     0          
O1       O      0.406000000000     0.329770000000     0.000000000000     0          
C2       C      0.232880000000     0.314660000000     0.000000000000     0          
H1       H      0.221100000000     0.358900000000     0.000000000000     0          
O1       O      0.500000000000     0.670230000000     0.094000000000     0          
C2       C      0.500000000000     0.685340000000     0.267120000000     0          
H1       H      0.500000000000     0.641100000000     0.278900000000     0          
O1       O      0.500000000000     0.329770000000     0.906000000000     0          
C2       C      0.500000000000     0.314660000000     0.732880000000     0          
H1       H      0.500000000000     0.358900000000     0.721100000000     0          
O1       O      0.670230000000     0.500000000000     0.906000000000     0          
C2       C      0.685340000000     0.500000000000     0.732880000000     0          
H1       H      0.641100000000     0.500000000000     0.721100000000     0          
O1       O      0.500000000000     0.670230000000     0.906000000000     0          
C2       C      0.500000000000     0.685340000000     0.732880000000     0          
H1       H      0.500000000000     0.641100000000     0.721100000000     0          
O1       O      0.329770000000     0.500000000000     0.906000000000     0          
C2       C      0.314660000000     0.500000000000     0.732880000000     0          
H1       H      0.358900000000     0.500000000000     0.721100000000     0          
O1       O      0.500000000000     0.329770000000     0.094000000000     0          
C2       C      0.500000000000     0.314660000000     0.267120000000     0          
H1       H      0.500000000000     0.358900000000     0.278900000000     0          
O1       O      0.670230000000     0.500000000000     0.094000000000     0          
C2       C      0.685340000000     0.500000000000     0.267120000000     0          
H1       H      0.641100000000     0.500000000000     0.278900000000     0          
O1       O      0.329770000000     0.500000000000     0.094000000000     0          
C2       C      0.314660000000     0.500000000000     0.267120000000     0          
H1       H      0.358900000000     0.500000000000     0.278900000000     0          


