data_RUBYUK

_audit_creation_method RASPA-1.0
_audit_creation_date 2020-11-2
_audit_author_name 'Rocio Bueno-Perez'

_cell_length_a    23.239
_cell_length_b    23.239
_cell_length_c    32.854
_cell_angle_alpha 90
_cell_angle_beta  90
_cell_angle_gamma 90
_cell_volume      17742.8

_symmetry_cell_setting          triclinic
_symmetry_space_group_name_Hall 'P 1'
_symmetry_space_group_name_H-M  'P 1'
_symmetry_Int_Tables_number     1

_symmetry_equiv_pos_as_xyz 'x,y,z'

loop_
_atom_site_label
_atom_site_type_symbol
_atom_site_fract_x
_atom_site_fract_y
_atom_site_fract_z
_atom_site_charge
Zr1      Zr     0.425380000000     0.425420000000     0.000000000000     0          
O2       O      0.496000000000     0.429200000000     0.035000000000     0          
O3       O      0.421600000000     0.496500000000     0.040200000000     0          
O4       O      0.392900000000     0.384300000000     0.947200000000     0          
O5       O      0.109700000000     0.102300000000     0.563500000000     0          
O6       O      0.066300000000     0.058000000000     0.606500000000     0          
O7       O      0.451400000000     0.439900000000     0.888700000000     0          
C8       C      0.235000000000     0.246000000000     0.826300000000     0          
C9       C      0.271000000000     0.275000000000     0.853100000000     0          
C10      C      0.305000000000     0.320200000000     0.839300000000     0          
C11      C      0.302800000000     0.336400000000     0.798600000000     0          
C12      C      0.266800000000     0.307500000000     0.771800000000     0          
C13      C      0.232800000000     0.262300000000     0.785600000000     0          
C14      C      0.226000000000     0.227300000000     0.713100000000     0          
C15      C      0.203700000000     0.192500000000     0.682500000000     0          
C16      C      0.155600000000     0.158700000000     0.690100000000     0          
C17      C      0.129700000000     0.159600000000     0.728200000000     0          
C18      C      0.152000000000     0.194400000000     0.758800000000     0          
C19      C      0.200100000000     0.228200000000     0.751300000000     0          
C20      C      0.336600000000     0.339800000000     0.875900000000     0          
C21      C      0.374900000000     0.382600000000     0.865600000000     0          
C22      C      0.114300000000     0.128900000000     0.661700000000     0          
C23      C      0.128000000000     0.138100000000     0.618500000000     0          
C24      C      0.082400000000     0.104500000000     0.592200000000     0          
C25      C      0.400100000000     0.417700000000     0.903900000000     0          
C26      C      0.878100000000     0.493600000000     0.018800000000     0          
C27      C      0.846200000000     0.538300000000     0.002100000000     0          
C28      C      0.779800000000     0.543000000000     0.996000000000     0          
O29      O      0.667600000000     0.551400000000     0.006800000000     0          
O30      O      0.665900000000     0.450100000000     0.007100000000     0          
C31      C      0.754800000000     0.495600000000     0.003000000000     0          
C32      C      0.689000000000     0.499900000000     0.000100000000     0          
H33      H      0.109520000000     0.886130000000     0.667710000000     0          
H34      H      0.180550000000     0.827230000000     0.593230000000     0          
H35      H      0.334130000000     0.666420000000     0.890420000000     0          
H36      H      0.397430000000     0.577110000000     0.825440000000     0          
H37      H      0.179190000000     0.765080000000     0.761570000000     0          
H38      H      0.126530000000     0.830590000000     0.712810000000     0          
H39      H      0.308270000000     0.724900000000     0.848790000000     0          
H40      H      0.244930000000     0.765470000000     0.793100000000     0          
H41      H      0.238240000000     0.772710000000     0.613510000000     0          
H42      H      0.291140000000     0.707280000000     0.662330000000     0          
H43      H      0.304810000000     0.630780000000     0.709920000000     0          
H44      H      0.368170000000     0.590210000000     0.765650000000     0          
Zr45     Zr     0.925380000000     0.925420000000     0.500000000000     0          
O46      O      0.996000000000     0.929200000000     0.535000000000     0          
O47      O      0.921600000000     0.996500000000     0.540200000000     0          
O48      O      0.892900000000     0.884300000000     0.447200000000     0          
O49      O      0.609700000000     0.602300000000     0.063500000000     0          
O50      O      0.566300000000     0.558000000000     0.106500000000     0          
O51      O      0.951400000000     0.939900000000     0.388700000000     0          
C52      C      0.735000000000     0.746000000000     0.326300000000     0          
C53      C      0.771000000000     0.775000000000     0.353100000000     0          
C54      C      0.805000000000     0.820200000000     0.339300000000     0          
C55      C      0.802800000000     0.836400000000     0.298600000000     0          
C56      C      0.766800000000     0.807500000000     0.271800000000     0          
C57      C      0.732800000000     0.762300000000     0.285600000000     0          
C58      C      0.726000000000     0.727300000000     0.213100000000     0          
C59      C      0.703700000000     0.692500000000     0.182500000000     0          
C60      C      0.655600000000     0.658700000000     0.190100000000     0          
C61      C      0.629700000000     0.659600000000     0.228200000000     0          
C62      C      0.652000000000     0.694400000000     0.258800000000     0          
C63      C      0.700100000000     0.728200000000     0.251300000000     0          
C64      C      0.836600000000     0.839800000000     0.375900000000     0          
C65      C      0.874900000000     0.882600000000     0.365600000000     0          
C66      C      0.614300000000     0.628900000000     0.161700000000     0          
C67      C      0.628000000000     0.638100000000     0.118500000000     0          
C68      C      0.582400000000     0.604500000000     0.092200000000     0          
C69      C      0.900100000000     0.917700000000     0.403900000000     0          
C70      C      0.378100000000     0.993600000000     0.518800000000     0          
C71      C      0.346200000000     0.038300000000     0.502100000000     0          
C72      C      0.279800000000     0.043000000000     0.496000000000     0          
O73      O      0.167600000000     0.051400000000     0.506800000000     0          
O74      O      0.165900000000     0.950100000000     0.507100000000     0          
C75      C      0.254800000000     0.995600000000     0.503000000000     0          
C76      C      0.189000000000     0.999900000000     0.500100000000     0          
H77      H      0.609520000000     0.386130000000     0.167710000000     0          
H78      H      0.680550000000     0.327230000000     0.093230000000     0          
H79      H      0.834130000000     0.166420000000     0.390420000000     0          
H80      H      0.897430000000     0.077110000000     0.325440000000     0          
H81      H      0.679190000000     0.265080000000     0.261570000000     0          
H82      H      0.626530000000     0.330590000000     0.212810000000     0          
H83      H      0.808270000000     0.224900000000     0.348790000000     0          
H84      H      0.744930000000     0.265470000000     0.293100000000     0          
H85      H      0.738240000000     0.272710000000     0.113510000000     0          
H86      H      0.791140000000     0.207280000000     0.162330000000     0          
H87      H      0.804810000000     0.130780000000     0.209920000000     0          
H88      H      0.868170000000     0.090210000000     0.265650000000     0          
Zr89     Zr     0.574620000000     0.574580000000     0.000000000000     0          
O90      O      0.504000000000     0.570800000000     0.035000000000     0          
O91      O      0.578400000000     0.503500000000     0.040200000000     0          
O92      O      0.607100000000     0.615700000000     0.947200000000     0          
O93      O      0.890300000000     0.897700000000     0.563500000000     0          
O94      O      0.933700000000     0.942000000000     0.606500000000     0          
O95      O      0.548600000000     0.560100000000     0.888700000000     0          
C96      C      0.765000000000     0.754000000000     0.826300000000     0          
C97      C      0.729000000000     0.725000000000     0.853100000000     0          
C98      C      0.695000000000     0.679800000000     0.839300000000     0          
C99      C      0.697200000000     0.663600000000     0.798600000000     0          
C100     C      0.733200000000     0.692500000000     0.771800000000     0          
C101     C      0.767200000000     0.737700000000     0.785600000000     0          
C102     C      0.774000000000     0.772700000000     0.713100000000     0          
C103     C      0.796300000000     0.807500000000     0.682500000000     0          
C104     C      0.844400000000     0.841300000000     0.690100000000     0          
C105     C      0.870300000000     0.840400000000     0.728200000000     0          
C106     C      0.848000000000     0.805600000000     0.758800000000     0          
C107     C      0.799900000000     0.771800000000     0.751300000000     0          
C108     C      0.663400000000     0.660200000000     0.875900000000     0          
C109     C      0.625100000000     0.617400000000     0.865600000000     0          
C110     C      0.885700000000     0.871100000000     0.661700000000     0          
C111     C      0.872000000000     0.861900000000     0.618500000000     0          
C112     C      0.917600000000     0.895500000000     0.592200000000     0          
C113     C      0.599900000000     0.582300000000     0.903900000000     0          
C114     C      0.874000000000     0.584100000000     0.983200000000     0          
C115     C      0.933700000000     0.585100000000     0.981100000000     0          
C116     C      0.937800000000     0.494600000000     0.016600000000     0          
O117     O      0.332400000000     0.448600000000     0.006800000000     0          
O118     O      0.334100000000     0.549900000000     0.007100000000     0          
C119     C      0.965600000000     0.540400000000     0.997800000000     0          
C120     C      0.064000000000     0.489100000000     0.987700000000     0          
C121     C      0.123400000000     0.489000000000     0.993000000000     0          
C122     C      0.151900000000     0.539800000000     0.002500000000     0          
C123     C      0.121100000000     0.590700000000     0.006800000000     0          
C124     C      0.061800000000     0.590800000000     0.001600000000     0          
C125     C      0.033200000000     0.540100000000     0.992000000000     0          
C126     C      0.245200000000     0.504400000000     0.003000000000     0          
C127     C      0.214100000000     0.545900000000     0.995000000000     0          
C128     C      0.311000000000     0.500100000000     0.000100000000     0          
H129     H      0.890480000000     0.113870000000     0.667710000000     0          
H130     H      0.819450000000     0.172770000000     0.593230000000     0          
H131     H      0.665870000000     0.333580000000     0.890420000000     0          
H132     H      0.602570000000     0.422890000000     0.825440000000     0          
H133     H      0.820810000000     0.234920000000     0.761570000000     0          
H134     H      0.873470000000     0.169410000000     0.712810000000     0          
H135     H      0.691730000000     0.275100000000     0.848790000000     0          
H136     H      0.755070000000     0.234530000000     0.793100000000     0          
H137     H      0.761760000000     0.227290000000     0.613510000000     0          
H138     H      0.708860000000     0.292720000000     0.662330000000     0          
H139     H      0.695190000000     0.369220000000     0.709920000000     0          
H140     H      0.631830000000     0.409790000000     0.765650000000     0          
H141     H      0.144520000000     0.632370000000     0.014600000000     0          
H142     H      0.036520000000     0.632530000000     0.005210000000     0          
Zr143    Zr     0.074620000000     0.074580000000     0.500000000000     0          
O144     O      0.004000000000     0.070800000000     0.535000000000     0          
O145     O      0.078400000000     0.003500000000     0.540200000000     0          
O146     O      0.107100000000     0.115700000000     0.447200000000     0          
O147     O      0.390300000000     0.397700000000     0.063500000000     0          
O148     O      0.433700000000     0.442000000000     0.106500000000     0          
O149     O      0.048600000000     0.060100000000     0.388700000000     0          
C150     C      0.265000000000     0.254000000000     0.326300000000     0          
C151     C      0.229000000000     0.225000000000     0.353100000000     0          
C152     C      0.195000000000     0.179800000000     0.339300000000     0          
C153     C      0.197200000000     0.163600000000     0.298600000000     0          
C154     C      0.233200000000     0.192500000000     0.271800000000     0          
C155     C      0.267200000000     0.237700000000     0.285600000000     0          
C156     C      0.274000000000     0.272700000000     0.213100000000     0          
C157     C      0.296300000000     0.307500000000     0.182500000000     0          
C158     C      0.344400000000     0.341300000000     0.190100000000     0          
C159     C      0.370300000000     0.340400000000     0.228200000000     0          
C160     C      0.348000000000     0.305600000000     0.258800000000     0          
C161     C      0.299900000000     0.271800000000     0.251300000000     0          
C162     C      0.163400000000     0.160200000000     0.375900000000     0          
C163     C      0.125100000000     0.117400000000     0.365600000000     0          
C164     C      0.385700000000     0.371100000000     0.161700000000     0          
C165     C      0.372000000000     0.361900000000     0.118500000000     0          
C166     C      0.417600000000     0.395500000000     0.092200000000     0          
C167     C      0.099900000000     0.082300000000     0.403900000000     0          
C168     C      0.374000000000     0.084100000000     0.483200000000     0          
C169     C      0.433700000000     0.085100000000     0.481100000000     0          
C170     C      0.437800000000     0.994600000000     0.516600000000     0          
O171     O      0.832400000000     0.948600000000     0.506800000000     0          
O172     O      0.834100000000     0.049900000000     0.507100000000     0          
C173     C      0.465600000000     0.040400000000     0.497800000000     0          
C174     C      0.564000000000     0.989100000000     0.487700000000     0          
C175     C      0.623400000000     0.989000000000     0.493000000000     0          
C176     C      0.651900000000     0.039800000000     0.502500000000     0          
C177     C      0.621100000000     0.090700000000     0.506800000000     0          
C178     C      0.561800000000     0.090800000000     0.501600000000     0          
C179     C      0.533200000000     0.040100000000     0.492000000000     0          
C180     C      0.745200000000     0.004400000000     0.503000000000     0          
C181     C      0.714100000000     0.045900000000     0.495000000000     0          
C182     C      0.811000000000     0.000100000000     0.500100000000     0          
H183     H      0.390480000000     0.613870000000     0.167710000000     0          
H184     H      0.319450000000     0.672770000000     0.093230000000     0          
H185     H      0.165870000000     0.833580000000     0.390420000000     0          
H186     H      0.102570000000     0.922890000000     0.325440000000     0          
H187     H      0.320810000000     0.734920000000     0.261570000000     0          
H188     H      0.373470000000     0.669410000000     0.212810000000     0          
H189     H      0.191730000000     0.775100000000     0.348790000000     0          
H190     H      0.255070000000     0.734530000000     0.293100000000     0          
H191     H      0.261760000000     0.727290000000     0.113510000000     0          
H192     H      0.208860000000     0.792720000000     0.162330000000     0          
H193     H      0.195190000000     0.869220000000     0.209920000000     0          
H194     H      0.131830000000     0.909790000000     0.265650000000     0          
H195     H      0.644520000000     0.132370000000     0.514600000000     0          
H196     H      0.536520000000     0.132530000000     0.505210000000     0          
Zr197    Zr     0.425420000000     0.574620000000     0.000000000000     0          
O198     O      0.429200000000     0.504000000000     0.965000000000     0          
O199     O      0.496500000000     0.578400000000     0.959800000000     0          
O200     O      0.384300000000     0.607100000000     0.052800000000     0          
O201     O      0.102300000000     0.890300000000     0.436500000000     0          
O202     O      0.058000000000     0.933700000000     0.393500000000     0          
O203     O      0.439900000000     0.548600000000     0.111300000000     0          
C204     C      0.246000000000     0.765000000000     0.173700000000     0          
C205     C      0.275000000000     0.729000000000     0.146900000000     0          
C206     C      0.320200000000     0.695000000000     0.160700000000     0          
C207     C      0.336400000000     0.697200000000     0.201400000000     0          
C208     C      0.307500000000     0.733200000000     0.228200000000     0          
C209     C      0.262300000000     0.767200000000     0.214400000000     0          
C210     C      0.227300000000     0.774000000000     0.286900000000     0          
C211     C      0.192500000000     0.796300000000     0.317500000000     0          
C212     C      0.158700000000     0.844400000000     0.309900000000     0          
C213     C      0.159600000000     0.870300000000     0.271800000000     0          
C214     C      0.194400000000     0.848000000000     0.241200000000     0          
C215     C      0.228200000000     0.799900000000     0.248700000000     0          
C216     C      0.339800000000     0.663400000000     0.124100000000     0          
C217     C      0.382600000000     0.625100000000     0.134400000000     0          
C218     C      0.128900000000     0.885700000000     0.338300000000     0          
C219     C      0.138100000000     0.872000000000     0.381500000000     0          
C220     C      0.104500000000     0.917600000000     0.407800000000     0          
C221     C      0.417700000000     0.599900000000     0.096100000000     0          
C222     C      0.415900000000     0.874000000000     0.016800000000     0          
C223     C      0.414900000000     0.933700000000     0.018900000000     0          
C224     C      0.505400000000     0.937800000000     0.983400000000     0          
O225     O      0.551400000000     0.332400000000     0.993200000000     0          
O226     O      0.450100000000     0.334100000000     0.992900000000     0          
C227     C      0.459600000000     0.965600000000     0.002200000000     0          
C228     C      0.510900000000     0.064000000000     0.012300000000     0          
C229     C      0.511000000000     0.123400000000     0.007000000000     0          
C230     C      0.460200000000     0.151900000000     0.997500000000     0          
C231     C      0.409300000000     0.121100000000     0.993200000000     0          
C232     C      0.409200000000     0.061800000000     0.998400000000     0          
C233     C      0.459900000000     0.033200000000     0.008000000000     0          
C234     C      0.495600000000     0.245200000000     0.997000000000     0          
C235     C      0.454100000000     0.214100000000     0.005000000000     0          
C236     C      0.499900000000     0.311000000000     0.999900000000     0          
H237     H      0.886130000000     0.890480000000     0.332290000000     0          
H238     H      0.827230000000     0.819450000000     0.406770000000     0          
H239     H      0.666420000000     0.665870000000     0.109580000000     0          
H240     H      0.577110000000     0.602570000000     0.174560000000     0          
H241     H      0.765080000000     0.820810000000     0.238430000000     0          
H242     H      0.830590000000     0.873470000000     0.287190000000     0          
H243     H      0.724900000000     0.691730000000     0.151210000000     0          
H244     H      0.765470000000     0.755070000000     0.206900000000     0          
H245     H      0.772710000000     0.761760000000     0.386490000000     0          
H246     H      0.707280000000     0.708860000000     0.337670000000     0          
H247     H      0.630780000000     0.695190000000     0.290080000000     0          
H248     H      0.590210000000     0.631830000000     0.234350000000     0          
H249     H      0.367630000000     0.144520000000     0.985400000000     0          
H250     H      0.367470000000     0.036520000000     0.994790000000     0          
Zr251    Zr     0.925420000000     0.074620000000     0.500000000000     0          
O252     O      0.929200000000     0.004000000000     0.465000000000     0          
O253     O      0.996500000000     0.078400000000     0.459800000000     0          
O254     O      0.884300000000     0.107100000000     0.552800000000     0          
O255     O      0.602300000000     0.390300000000     0.936500000000     0          
O256     O      0.558000000000     0.433700000000     0.893500000000     0          
O257     O      0.939900000000     0.048600000000     0.611300000000     0          
C258     C      0.746000000000     0.265000000000     0.673700000000     0          
C259     C      0.775000000000     0.229000000000     0.646900000000     0          
C260     C      0.820200000000     0.195000000000     0.660700000000     0          
C261     C      0.836400000000     0.197200000000     0.701400000000     0          
C262     C      0.807500000000     0.233200000000     0.728200000000     0          
C263     C      0.762300000000     0.267200000000     0.714400000000     0          
C264     C      0.727300000000     0.274000000000     0.786900000000     0          
C265     C      0.692500000000     0.296300000000     0.817500000000     0          
C266     C      0.658700000000     0.344400000000     0.809900000000     0          
C267     C      0.659600000000     0.370300000000     0.771800000000     0          
C268     C      0.694400000000     0.348000000000     0.741200000000     0          
C269     C      0.728200000000     0.299900000000     0.748700000000     0          
C270     C      0.839800000000     0.163400000000     0.624100000000     0          
C271     C      0.882600000000     0.125100000000     0.634400000000     0          
C272     C      0.628900000000     0.385700000000     0.838300000000     0          
C273     C      0.638100000000     0.372000000000     0.881500000000     0          
C274     C      0.604500000000     0.417600000000     0.907800000000     0          
C275     C      0.917700000000     0.099900000000     0.596100000000     0          
C276     C      0.915900000000     0.374000000000     0.516800000000     0          
C277     C      0.914900000000     0.433700000000     0.518900000000     0          
C278     C      0.005400000000     0.437800000000     0.483400000000     0          
O279     O      0.051400000000     0.832400000000     0.493200000000     0          
O280     O      0.950100000000     0.834100000000     0.492900000000     0          
C281     C      0.959600000000     0.465600000000     0.502200000000     0          
C282     C      0.010900000000     0.564000000000     0.512300000000     0          
C283     C      0.011000000000     0.623400000000     0.507000000000     0          
C284     C      0.960200000000     0.651900000000     0.497500000000     0          
C285     C      0.909300000000     0.621100000000     0.493200000000     0          
C286     C      0.909200000000     0.561800000000     0.498400000000     0          
C287     C      0.959900000000     0.533200000000     0.508000000000     0          
C288     C      0.995600000000     0.745200000000     0.497000000000     0          
C289     C      0.954100000000     0.714100000000     0.505000000000     0          
C290     C      0.999900000000     0.811000000000     0.499900000000     0          
H291     H      0.386130000000     0.390480000000     0.832290000000     0          
H292     H      0.327230000000     0.319450000000     0.906770000000     0          
H293     H      0.166420000000     0.165870000000     0.609580000000     0          
H294     H      0.077110000000     0.102570000000     0.674560000000     0          
H295     H      0.265080000000     0.320810000000     0.738430000000     0          
H296     H      0.330590000000     0.373470000000     0.787190000000     0          
H297     H      0.224900000000     0.191730000000     0.651210000000     0          
H298     H      0.265470000000     0.255070000000     0.706900000000     0          
H299     H      0.272710000000     0.261760000000     0.886490000000     0          
H300     H      0.207280000000     0.208860000000     0.837670000000     0          
H301     H      0.130780000000     0.195190000000     0.790080000000     0          
H302     H      0.090210000000     0.131830000000     0.734350000000     0          
H303     H      0.867630000000     0.644520000000     0.485400000000     0          
H304     H      0.867470000000     0.536520000000     0.494790000000     0          
Zr305    Zr     0.574580000000     0.425380000000     0.000000000000     0          
O306     O      0.570800000000     0.496000000000     0.965000000000     0          
O307     O      0.503500000000     0.421600000000     0.959800000000     0          
O308     O      0.615700000000     0.392900000000     0.052800000000     0          
O309     O      0.897700000000     0.109700000000     0.436500000000     0          
O310     O      0.942000000000     0.066300000000     0.393500000000     0          
O311     O      0.560100000000     0.451400000000     0.111300000000     0          
C312     C      0.754000000000     0.235000000000     0.173700000000     0          
C313     C      0.725000000000     0.271000000000     0.146900000000     0          
C314     C      0.679800000000     0.305000000000     0.160700000000     0          
C315     C      0.663600000000     0.302800000000     0.201400000000     0          
C316     C      0.692500000000     0.266800000000     0.228200000000     0          
C317     C      0.737700000000     0.232800000000     0.214400000000     0          
C318     C      0.772700000000     0.226000000000     0.286900000000     0          
C319     C      0.807500000000     0.203700000000     0.317500000000     0          
C320     C      0.841300000000     0.155600000000     0.309900000000     0          
C321     C      0.840400000000     0.129700000000     0.271800000000     0          
C322     C      0.805600000000     0.152000000000     0.241200000000     0          
C323     C      0.771800000000     0.200100000000     0.248700000000     0          
C324     C      0.660200000000     0.336600000000     0.124100000000     0          
C325     C      0.617400000000     0.374900000000     0.134400000000     0          
C326     C      0.871100000000     0.114300000000     0.338300000000     0          
C327     C      0.861900000000     0.128000000000     0.381500000000     0          
C328     C      0.895500000000     0.082400000000     0.407800000000     0          
C329     C      0.582300000000     0.400100000000     0.096100000000     0          
C330     C      0.506400000000     0.878100000000     0.981200000000     0          
C331     C      0.461700000000     0.846200000000     0.997900000000     0          
C332     C      0.457000000000     0.779800000000     0.004000000000     0          
O333     O      0.448600000000     0.667600000000     0.993200000000     0          
O334     O      0.549900000000     0.665900000000     0.992900000000     0          
C335     C      0.504400000000     0.754800000000     0.997000000000     0          
C336     C      0.500100000000     0.689000000000     0.999900000000     0          
H337     H      0.113870000000     0.109520000000     0.332290000000     0          
H338     H      0.172770000000     0.180550000000     0.406770000000     0          
H339     H      0.333580000000     0.334130000000     0.109580000000     0          
H340     H      0.422890000000     0.397430000000     0.174560000000     0          
H341     H      0.234920000000     0.179190000000     0.238430000000     0          
H342     H      0.169410000000     0.126530000000     0.287190000000     0          
H343     H      0.275100000000     0.308270000000     0.151210000000     0          
H344     H      0.234530000000     0.244930000000     0.206900000000     0          
H345     H      0.227290000000     0.238240000000     0.386490000000     0          
H346     H      0.292720000000     0.291140000000     0.337670000000     0          
H347     H      0.369220000000     0.304810000000     0.290080000000     0          
H348     H      0.409790000000     0.368170000000     0.234350000000     0          
Zr349    Zr     0.074580000000     0.925380000000     0.500000000000     0          
O350     O      0.070800000000     0.996000000000     0.465000000000     0          
O351     O      0.003500000000     0.921600000000     0.459800000000     0          
O352     O      0.115700000000     0.892900000000     0.552800000000     0          
O353     O      0.397700000000     0.609700000000     0.936500000000     0          
O354     O      0.442000000000     0.566300000000     0.893500000000     0          
O355     O      0.060100000000     0.951400000000     0.611300000000     0          
C356     C      0.254000000000     0.735000000000     0.673700000000     0          
C357     C      0.225000000000     0.771000000000     0.646900000000     0          
C358     C      0.179800000000     0.805000000000     0.660700000000     0          
C359     C      0.163600000000     0.802800000000     0.701400000000     0          
C360     C      0.192500000000     0.766800000000     0.728200000000     0          
C361     C      0.237700000000     0.732800000000     0.714400000000     0          
C362     C      0.272700000000     0.726000000000     0.786900000000     0          
C363     C      0.307500000000     0.703700000000     0.817500000000     0          
C364     C      0.341300000000     0.655600000000     0.809900000000     0          
C365     C      0.340400000000     0.629700000000     0.771800000000     0          
C366     C      0.305600000000     0.652000000000     0.741200000000     0          
C367     C      0.271800000000     0.700100000000     0.748700000000     0          
C368     C      0.160200000000     0.836600000000     0.624100000000     0          
C369     C      0.117400000000     0.874900000000     0.634400000000     0          
C370     C      0.371100000000     0.614300000000     0.838300000000     0          
C371     C      0.361900000000     0.628000000000     0.881500000000     0          
C372     C      0.395500000000     0.582400000000     0.907800000000     0          
C373     C      0.082300000000     0.900100000000     0.596100000000     0          
C374     C      0.006400000000     0.378100000000     0.481200000000     0          
C375     C      0.961700000000     0.346200000000     0.497900000000     0          
C376     C      0.957000000000     0.279800000000     0.504000000000     0          
O377     O      0.948600000000     0.167600000000     0.493200000000     0          
O378     O      0.049900000000     0.165900000000     0.492900000000     0          
C379     C      0.004400000000     0.254800000000     0.497000000000     0          
C380     C      0.000100000000     0.189000000000     0.499900000000     0          
H381     H      0.914330000000     0.259800000000     0.513640000000     0          
H382     H      0.613870000000     0.609520000000     0.832290000000     0          
H383     H      0.672770000000     0.680550000000     0.906770000000     0          
H384     H      0.833580000000     0.834130000000     0.609580000000     0          
H385     H      0.922890000000     0.897430000000     0.674560000000     0          
H386     H      0.734920000000     0.679190000000     0.738430000000     0          
H387     H      0.669410000000     0.626530000000     0.787190000000     0          
H388     H      0.775100000000     0.808270000000     0.651210000000     0          
H389     H      0.734530000000     0.744930000000     0.706900000000     0          
H390     H      0.727290000000     0.738240000000     0.886490000000     0          
H391     H      0.792720000000     0.791140000000     0.837670000000     0          
H392     H      0.869220000000     0.804810000000     0.790080000000     0          
H393     H      0.909790000000     0.868170000000     0.734350000000     0          
Zr394    Zr     0.500000000000     0.500000000000     0.074730000000     0          
Zr395    Zr     0.000000000000     0.000000000000     0.574730000000     0          
Zr396    Zr     0.500000000000     0.500000000000     0.925270000000     0          
Zr397    Zr     0.000000000000     0.000000000000     0.425270000000     0          
H398     H      0.781250000000     0.455660000000     0.010480000000     0          
H399     H      0.759800000000     0.585670000000     0.986360000000     0          
H400     H      0.412910000000     0.233750000000     0.017730000000     0          
H401     H      0.537580000000     0.225310000000     0.985850000000     0          
H402     H      0.414330000000     0.759800000000     0.013640000000     0          
H403     H      0.233750000000     0.587090000000     0.982270000000     0          
H404     H      0.225310000000     0.462420000000     0.014150000000     0          
H405     H      0.544340000000     0.781250000000     0.989520000000     0          
H406     H      0.855300000000     0.456110000000     0.034310000000     0          
H407     H      0.355300000000     0.956110000000     0.534310000000     0          
H408     H      0.847860000000     0.620770000000     0.969450000000     0          
H409     H      0.956550000000     0.622620000000     0.965660000000     0          
H410     H      0.963980000000     0.457850000000     0.030220000000     0          
H411     H      0.040610000000     0.447440000000     0.979840000000     0          
H412     H      0.148670000000     0.447240000000     0.989550000000     0          
H413     H      0.347860000000     0.120770000000     0.469450000000     0          
H414     H      0.456550000000     0.122620000000     0.465660000000     0          
H415     H      0.463980000000     0.957850000000     0.530220000000     0          
H416     H      0.540610000000     0.947440000000     0.479840000000     0          
H417     H      0.648670000000     0.947240000000     0.489550000000     0          
H418     H      0.379230000000     0.847860000000     0.030550000000     0          
H419     H      0.377380000000     0.956550000000     0.034340000000     0          
H420     H      0.542150000000     0.963980000000     0.969780000000     0          
H421     H      0.552560000000     0.040610000000     0.020160000000     0          
H422     H      0.552760000000     0.148670000000     0.010450000000     0          
H423     H      0.879230000000     0.347860000000     0.530550000000     0          
H424     H      0.877380000000     0.456550000000     0.534340000000     0          
H425     H      0.042150000000     0.463980000000     0.469780000000     0          
H426     H      0.052560000000     0.540610000000     0.520160000000     0          
H427     H      0.052760000000     0.648670000000     0.510450000000     0          
H428     H      0.543890000000     0.855300000000     0.965690000000     0          
H429     H      0.043890000000     0.355300000000     0.465690000000     0          
H430     H      0.044340000000     0.281250000000     0.489520000000     0          
H431     H      0.912910000000     0.733750000000     0.517730000000     0          
H432     H      0.037580000000     0.725310000000     0.485850000000     0          
H433     H      0.281250000000     0.955660000000     0.510480000000     0          
H434     H      0.259800000000     0.085670000000     0.486360000000     0          
H435     H      0.733750000000     0.087090000000     0.482270000000     0          
H436     H      0.725310000000     0.962420000000     0.514150000000     0          


