data_SALXEL

_audit_creation_method RASPA-1.0
_audit_creation_date 2020-4-3
_audit_author_name 'Rocio Bueno-Perez'

_cell_length_a    24.9919
_cell_length_b    24.9919
_cell_length_c    24.7688
_cell_angle_alpha 90
_cell_angle_beta  90
_cell_angle_gamma 120
_cell_volume      13397.8

_symmetry_cell_setting          hexagonal
_symmetry_space_group_name_Hall 'P 1'
_symmetry_space_group_name_H-M  'P 1'
_symmetry_Int_Tables_number     1

_symmetry_equiv_pos_as_xyz 'x,y,z'

loop_
_atom_site_label
_atom_site_type_symbol
_atom_site_fract_x
_atom_site_fract_y
_atom_site_fract_z
_atom_site_charge
Zr1      Zr     0.388930000000     0.469090000000     0.474780000000     0          
O1       O      0.430400000000     0.443800000000     0.542000000000     0          
O2       O      0.368400000000     0.532400000000     0.435100000000     0          
O3       O      0.309300000000     0.379000000000     0.483200000000     0          
O6       O      0.331600000000     0.463500000000     0.538600000000     0          
O7       O      0.393300000000     0.504400000000     0.608200000000     0          
C1       C      0.338200000000     0.482400000000     0.588900000000     0          
C2       C      0.290700000000     0.494300000000     0.618400000000     0          
C3       C      0.292600000000     0.523500000000     0.669300000000     0          
O9       O      0.369100000000     0.438300000000     0.390950000000     0          
O10      O      0.447400000000     0.448700000000     0.351100000000     0          
C4       C      0.393000000000     0.439000000000     0.344900000000     0          
C5       C      0.349600000000     0.418600000000     0.296600000000     0          
C6       C      0.291300000000     0.411600000000     0.279100000000     0          
H        H      0.334130000000     0.539500000000     0.697190000000     0          
Zr2      Zr     0.481450000000     0.518560000000     0.592740000000     0          
O4       O      0.469700000000     0.530300000000     0.434200000000     0          
O5       O      0.455200000000     0.544800000000     0.517600000000     0          
O8       O      0.239650000000     0.479300000000     0.585300000000     0          
O11      O      0.376000000000     0.410500000000     0.250000000000     0          
Zr1      Zr     0.919840000000     0.388930000000     0.974780000000     0          
O1       O      0.986600000000     0.430400000000     0.042000000000     0          
O2       O      0.836000000000     0.368400000000     0.935100000000     0          
O3       O      0.930300000000     0.309300000000     0.983200000000     0          
O6       O      0.868100000000     0.331600000000     0.038600000000     0          
O7       O      0.888900000000     0.393300000000     0.108200000000     0          
C1       C      0.855800000000     0.338200000000     0.088900000000     0          
C2       C      0.796400000000     0.290700000000     0.118400000000     0          
C3       C      0.769100000000     0.292600000000     0.169300000000     0          
O9       O      0.930800000000     0.369100000000     0.890950000000     0          
O10      O      0.998700000000     0.447400000000     0.851100000000     0          
C4       C      0.954000000000     0.393000000000     0.844900000000     0          
C5       C      0.931000000000     0.349600000000     0.796600000000     0          
C6       C      0.879700000000     0.291300000000     0.779100000000     0          
H        H      0.794630000000     0.334130000000     0.197190000000     0          
Zr2      Zr     0.962890000000     0.481450000000     0.092740000000     0          
O4       O      0.939400000000     0.469700000000     0.934200000000     0          
O5       O      0.910400000000     0.455200000000     0.017600000000     0          
O8       O      0.760350000000     0.239650000000     0.085300000000     0          
O11      O      0.965500000000     0.376000000000     0.750000000000     0          
Zr1      Zr     0.530910000000     0.919840000000     0.474780000000     0          
O1       O      0.556200000000     0.986600000000     0.542000000000     0          
O2       O      0.467600000000     0.836000000000     0.435100000000     0          
O3       O      0.621000000000     0.930300000000     0.483200000000     0          
O6       O      0.536500000000     0.868100000000     0.538600000000     0          
O7       O      0.495600000000     0.888900000000     0.608200000000     0          
C1       C      0.517600000000     0.855800000000     0.588900000000     0          
C2       C      0.505700000000     0.796400000000     0.618400000000     0          
C3       C      0.476500000000     0.769100000000     0.669300000000     0          
O9       O      0.561700000000     0.930800000000     0.390950000000     0          
O10      O      0.551300000000     0.998700000000     0.351100000000     0          
C4       C      0.561000000000     0.954000000000     0.344900000000     0          
C5       C      0.581400000000     0.931000000000     0.296600000000     0          
C6       C      0.588400000000     0.879700000000     0.279100000000     0          
H        H      0.460500000000     0.794630000000     0.697190000000     0          
Zr2      Zr     0.481440000000     0.962890000000     0.592740000000     0          
O4       O      0.469700000000     0.939400000000     0.434200000000     0          
O5       O      0.455200000000     0.910400000000     0.517600000000     0          
O8       O      0.520700000000     0.760350000000     0.585300000000     0          
O11      O      0.589500000000     0.965500000000     0.250000000000     0          
Zr1      Zr     0.611070000000     0.530910000000     0.974780000000     0          
O1       O      0.569600000000     0.556200000000     0.042000000000     0          
O2       O      0.631600000000     0.467600000000     0.935100000000     0          
O3       O      0.690700000000     0.621000000000     0.983200000000     0          
O6       O      0.668400000000     0.536500000000     0.038600000000     0          
O7       O      0.606700000000     0.495600000000     0.108200000000     0          
C1       C      0.661800000000     0.517600000000     0.088900000000     0          
C2       C      0.709300000000     0.505700000000     0.118400000000     0          
C3       C      0.707400000000     0.476500000000     0.169300000000     0          
O9       O      0.630900000000     0.561700000000     0.890950000000     0          
O10      O      0.552600000000     0.551300000000     0.851100000000     0          
C4       C      0.607000000000     0.561000000000     0.844900000000     0          
C5       C      0.650400000000     0.581400000000     0.796600000000     0          
C6       C      0.708700000000     0.588400000000     0.779100000000     0          
H        H      0.665870000000     0.460500000000     0.197190000000     0          
Zr2      Zr     0.518550000000     0.481440000000     0.092740000000     0          
O4       O      0.530300000000     0.469700000000     0.934200000000     0          
O5       O      0.544800000000     0.455200000000     0.017600000000     0          
O8       O      0.760350000000     0.520700000000     0.085300000000     0          
O11      O      0.624000000000     0.589500000000     0.750000000000     0          
Zr1      Zr     0.080160000000     0.611070000000     0.474780000000     0          
O1       O      0.013400000000     0.569600000000     0.542000000000     0          
O2       O      0.164000000000     0.631600000000     0.435100000000     0          
O3       O      0.069700000000     0.690700000000     0.483200000000     0          
O6       O      0.131900000000     0.668400000000     0.538600000000     0          
O7       O      0.111100000000     0.606700000000     0.608200000000     0          
C1       C      0.144200000000     0.661800000000     0.588900000000     0          
C2       C      0.203600000000     0.709300000000     0.618400000000     0          
C3       C      0.230900000000     0.707400000000     0.669300000000     0          
O9       O      0.069200000000     0.630900000000     0.390950000000     0          
O10      O      0.001300000000     0.552600000000     0.351100000000     0          
C4       C      0.046000000000     0.607000000000     0.344900000000     0          
C5       C      0.069000000000     0.650400000000     0.296600000000     0          
C6       C      0.120300000000     0.708700000000     0.279100000000     0          
H        H      0.205370000000     0.665870000000     0.697190000000     0          
Zr2      Zr     0.037110000000     0.518550000000     0.592740000000     0          
O4       O      0.060600000000     0.530300000000     0.434200000000     0          
O5       O      0.089600000000     0.544800000000     0.517600000000     0          
O8       O      0.239650000000     0.760350000000     0.585300000000     0          
O11      O      0.034500000000     0.624000000000     0.250000000000     0          
Zr1      Zr     0.469090000000     0.080160000000     0.974780000000     0          
O1       O      0.443800000000     0.013400000000     0.042000000000     0          
O2       O      0.532400000000     0.164000000000     0.935100000000     0          
O3       O      0.379000000000     0.069700000000     0.983200000000     0          
O6       O      0.463500000000     0.131900000000     0.038600000000     0          
O7       O      0.504400000000     0.111100000000     0.108200000000     0          
C1       C      0.482400000000     0.144200000000     0.088900000000     0          
C2       C      0.494300000000     0.203600000000     0.118400000000     0          
C3       C      0.523500000000     0.230900000000     0.169300000000     0          
O9       O      0.438300000000     0.069200000000     0.890950000000     0          
O10      O      0.448700000000     0.001300000000     0.851100000000     0          
C4       C      0.439000000000     0.046000000000     0.844900000000     0          
C5       C      0.418600000000     0.069000000000     0.796600000000     0          
C6       C      0.411600000000     0.120300000000     0.779100000000     0          
H        H      0.539500000000     0.205370000000     0.197190000000     0          
Zr2      Zr     0.518560000000     0.037110000000     0.092740000000     0          
O4       O      0.530300000000     0.060600000000     0.934200000000     0          
O5       O      0.544800000000     0.089600000000     0.017600000000     0          
O8       O      0.479300000000     0.239650000000     0.085300000000     0          
O11      O      0.410500000000     0.034500000000     0.750000000000     0          
Zr1      Zr     0.530910000000     0.611070000000     0.025220000000     0          
O1       O      0.556200000000     0.569600000000     0.958000000000     0          
O2       O      0.467600000000     0.631600000000     0.064900000000     0          
O3       O      0.621000000000     0.690700000000     0.016800000000     0          
O6       O      0.536500000000     0.668400000000     0.961400000000     0          
O7       O      0.495600000000     0.606700000000     0.891800000000     0          
C1       C      0.517600000000     0.661800000000     0.911100000000     0          
C2       C      0.505700000000     0.709300000000     0.881600000000     0          
C3       C      0.476500000000     0.707400000000     0.830700000000     0          
O9       O      0.561700000000     0.630900000000     0.109050000000     0          
O10      O      0.551300000000     0.552600000000     0.148900000000     0          
C4       C      0.561000000000     0.607000000000     0.155100000000     0          
C5       C      0.581400000000     0.650400000000     0.203400000000     0          
C6       C      0.588400000000     0.708700000000     0.220900000000     0          
H        H      0.460500000000     0.665870000000     0.802810000000     0          
Zr2      Zr     0.481440000000     0.518550000000     0.907260000000     0          
O4       O      0.469700000000     0.530300000000     0.065800000000     0          
O5       O      0.455200000000     0.544800000000     0.982400000000     0          
O8       O      0.520700000000     0.760350000000     0.914700000000     0          
O11      O      0.589500000000     0.624000000000     0.250000000000     0          
Zr1      Zr     0.919840000000     0.530910000000     0.525220000000     0          
O1       O      0.986600000000     0.556200000000     0.458000000000     0          
O2       O      0.836000000000     0.467600000000     0.564900000000     0          
O3       O      0.930300000000     0.621000000000     0.516800000000     0          
O6       O      0.868100000000     0.536500000000     0.461400000000     0          
O7       O      0.888900000000     0.495600000000     0.391800000000     0          
C1       C      0.855800000000     0.517600000000     0.411100000000     0          
C2       C      0.796400000000     0.505700000000     0.381600000000     0          
C3       C      0.769100000000     0.476500000000     0.330700000000     0          
O9       O      0.930800000000     0.561700000000     0.609050000000     0          
O10      O      0.998700000000     0.551300000000     0.648900000000     0          
C4       C      0.954000000000     0.561000000000     0.655100000000     0          
C5       C      0.931000000000     0.581400000000     0.703400000000     0          
C6       C      0.879700000000     0.588400000000     0.720900000000     0          
H        H      0.794630000000     0.460500000000     0.302810000000     0          
Zr2      Zr     0.962890000000     0.481440000000     0.407260000000     0          
O4       O      0.939400000000     0.469700000000     0.565800000000     0          
O5       O      0.910400000000     0.455200000000     0.482400000000     0          
O8       O      0.760350000000     0.520700000000     0.414700000000     0          
O11      O      0.965500000000     0.589500000000     0.750000000000     0          
Zr1      Zr     0.388930000000     0.919840000000     0.025220000000     0          
O1       O      0.430400000000     0.986600000000     0.958000000000     0          
O2       O      0.368400000000     0.836000000000     0.064900000000     0          
O3       O      0.309300000000     0.930300000000     0.016800000000     0          
O6       O      0.331600000000     0.868100000000     0.961400000000     0          
O7       O      0.393300000000     0.888900000000     0.891800000000     0          
C1       C      0.338200000000     0.855800000000     0.911100000000     0          
C2       C      0.290700000000     0.796400000000     0.881600000000     0          
C3       C      0.292600000000     0.769100000000     0.830700000000     0          
O9       O      0.369100000000     0.930800000000     0.109050000000     0          
O10      O      0.447400000000     0.998700000000     0.148900000000     0          
C4       C      0.393000000000     0.954000000000     0.155100000000     0          
C5       C      0.349600000000     0.931000000000     0.203400000000     0          
C6       C      0.291300000000     0.879700000000     0.220900000000     0          
H        H      0.334130000000     0.794630000000     0.802810000000     0          
Zr2      Zr     0.481450000000     0.962890000000     0.907260000000     0          
O4       O      0.469700000000     0.939400000000     0.065800000000     0          
O5       O      0.455200000000     0.910400000000     0.982400000000     0          
O8       O      0.239650000000     0.760350000000     0.914700000000     0          
O11      O      0.376000000000     0.965500000000     0.250000000000     0          
Zr1      Zr     0.469090000000     0.388930000000     0.525220000000     0          
O1       O      0.443800000000     0.430400000000     0.458000000000     0          
O2       O      0.532400000000     0.368400000000     0.564900000000     0          
O3       O      0.379000000000     0.309300000000     0.516800000000     0          
O6       O      0.463500000000     0.331600000000     0.461400000000     0          
O7       O      0.504400000000     0.393300000000     0.391800000000     0          
C1       C      0.482400000000     0.338200000000     0.411100000000     0          
C2       C      0.494300000000     0.290700000000     0.381600000000     0          
C3       C      0.523500000000     0.292600000000     0.330700000000     0          
O9       O      0.438300000000     0.369100000000     0.609050000000     0          
O10      O      0.448700000000     0.447400000000     0.648900000000     0          
C4       C      0.439000000000     0.393000000000     0.655100000000     0          
C5       C      0.418600000000     0.349600000000     0.703400000000     0          
C6       C      0.411600000000     0.291300000000     0.720900000000     0          
H        H      0.539500000000     0.334130000000     0.302810000000     0          
Zr2      Zr     0.518560000000     0.481450000000     0.407260000000     0          
O4       O      0.530300000000     0.469700000000     0.565800000000     0          
O5       O      0.544800000000     0.455200000000     0.482400000000     0          
O8       O      0.479300000000     0.239650000000     0.414700000000     0          
O11      O      0.410500000000     0.376000000000     0.750000000000     0          
Zr1      Zr     0.080160000000     0.469090000000     0.025220000000     0          
O1       O      0.013400000000     0.443800000000     0.958000000000     0          
O2       O      0.164000000000     0.532400000000     0.064900000000     0          
O3       O      0.069700000000     0.379000000000     0.016800000000     0          
O6       O      0.131900000000     0.463500000000     0.961400000000     0          
O7       O      0.111100000000     0.504400000000     0.891800000000     0          
C1       C      0.144200000000     0.482400000000     0.911100000000     0          
C2       C      0.203600000000     0.494300000000     0.881600000000     0          
C3       C      0.230900000000     0.523500000000     0.830700000000     0          
O9       O      0.069200000000     0.438300000000     0.109050000000     0          
O10      O      0.001300000000     0.448700000000     0.148900000000     0          
C4       C      0.046000000000     0.439000000000     0.155100000000     0          
C5       C      0.069000000000     0.418600000000     0.203400000000     0          
C6       C      0.120300000000     0.411600000000     0.220900000000     0          
H        H      0.205370000000     0.539500000000     0.802810000000     0          
Zr2      Zr     0.037110000000     0.518560000000     0.907260000000     0          
O4       O      0.060600000000     0.530300000000     0.065800000000     0          
O5       O      0.089600000000     0.544800000000     0.982400000000     0          
O8       O      0.239650000000     0.479300000000     0.914700000000     0          
O11      O      0.034500000000     0.410500000000     0.250000000000     0          
Zr1      Zr     0.611070000000     0.080160000000     0.525220000000     0          
O1       O      0.569600000000     0.013400000000     0.458000000000     0          
O2       O      0.631600000000     0.164000000000     0.564900000000     0          
O3       O      0.690700000000     0.069700000000     0.516800000000     0          
O6       O      0.668400000000     0.131900000000     0.461400000000     0          
O7       O      0.606700000000     0.111100000000     0.391800000000     0          
C1       C      0.661800000000     0.144200000000     0.411100000000     0          
C2       C      0.709300000000     0.203600000000     0.381600000000     0          
C3       C      0.707400000000     0.230900000000     0.330700000000     0          
O9       O      0.630900000000     0.069200000000     0.609050000000     0          
O10      O      0.552600000000     0.001300000000     0.648900000000     0          
C4       C      0.607000000000     0.046000000000     0.655100000000     0          
C5       C      0.650400000000     0.069000000000     0.703400000000     0          
C6       C      0.708700000000     0.120300000000     0.720900000000     0          
H        H      0.665870000000     0.205370000000     0.302810000000     0          
Zr2      Zr     0.518550000000     0.037110000000     0.407260000000     0          
O4       O      0.530300000000     0.060600000000     0.565800000000     0          
O5       O      0.544800000000     0.089600000000     0.482400000000     0          
O8       O      0.760350000000     0.239650000000     0.414700000000     0          
O11      O      0.624000000000     0.034500000000     0.750000000000     0          
Zr1      Zr     0.611070000000     0.530910000000     0.525220000000     0          
O1       O      0.569600000000     0.556200000000     0.458000000000     0          
O2       O      0.631600000000     0.467600000000     0.564900000000     0          
O3       O      0.690700000000     0.621000000000     0.516800000000     0          
O6       O      0.668400000000     0.536500000000     0.461400000000     0          
O7       O      0.606700000000     0.495600000000     0.391800000000     0          
C1       C      0.661800000000     0.517600000000     0.411100000000     0          
C2       C      0.709300000000     0.505700000000     0.381600000000     0          
C3       C      0.707400000000     0.476500000000     0.330700000000     0          
O9       O      0.630900000000     0.561700000000     0.609050000000     0          
O10      O      0.552600000000     0.551300000000     0.648900000000     0          
C4       C      0.607000000000     0.561000000000     0.655100000000     0          
C5       C      0.650400000000     0.581400000000     0.703400000000     0          
C6       C      0.708700000000     0.588400000000     0.720900000000     0          
H        H      0.665870000000     0.460500000000     0.302810000000     0          
Zr1      Zr     0.080160000000     0.611070000000     0.025220000000     0          
O1       O      0.013400000000     0.569600000000     0.958000000000     0          
O2       O      0.164000000000     0.631600000000     0.064900000000     0          
O3       O      0.069700000000     0.690700000000     0.016800000000     0          
O6       O      0.131900000000     0.668400000000     0.961400000000     0          
O7       O      0.111100000000     0.606700000000     0.891800000000     0          
C1       C      0.144200000000     0.661800000000     0.911100000000     0          
C2       C      0.203600000000     0.709300000000     0.881600000000     0          
C3       C      0.230900000000     0.707400000000     0.830700000000     0          
O9       O      0.069200000000     0.630900000000     0.109050000000     0          
O10      O      0.001300000000     0.552600000000     0.148900000000     0          
C4       C      0.046000000000     0.607000000000     0.155100000000     0          
C5       C      0.069000000000     0.650400000000     0.203400000000     0          
C6       C      0.120300000000     0.708700000000     0.220900000000     0          
H        H      0.205370000000     0.665870000000     0.802810000000     0          
Zr1      Zr     0.469090000000     0.080160000000     0.525220000000     0          
O1       O      0.443800000000     0.013400000000     0.458000000000     0          
O2       O      0.532400000000     0.164000000000     0.564900000000     0          
O3       O      0.379000000000     0.069700000000     0.516800000000     0          
O6       O      0.463500000000     0.131900000000     0.461400000000     0          
O7       O      0.504400000000     0.111100000000     0.391800000000     0          
C1       C      0.482400000000     0.144200000000     0.411100000000     0          
C2       C      0.494300000000     0.203600000000     0.381600000000     0          
C3       C      0.523500000000     0.230900000000     0.330700000000     0          
O9       O      0.438300000000     0.069200000000     0.609050000000     0          
O10      O      0.448700000000     0.001300000000     0.648900000000     0          
C4       C      0.439000000000     0.046000000000     0.655100000000     0          
C5       C      0.418600000000     0.069000000000     0.703400000000     0          
C6       C      0.411600000000     0.120300000000     0.720900000000     0          
H        H      0.539500000000     0.205370000000     0.302810000000     0          
Zr1      Zr     0.388930000000     0.469090000000     0.025220000000     0          
O1       O      0.430400000000     0.443800000000     0.958000000000     0          
O2       O      0.368400000000     0.532400000000     0.064900000000     0          
O3       O      0.309300000000     0.379000000000     0.016800000000     0          
O6       O      0.331600000000     0.463500000000     0.961400000000     0          
O7       O      0.393300000000     0.504400000000     0.891800000000     0          
C1       C      0.338200000000     0.482400000000     0.911100000000     0          
C2       C      0.290700000000     0.494300000000     0.881600000000     0          
C3       C      0.292600000000     0.523500000000     0.830700000000     0          
O9       O      0.369100000000     0.438300000000     0.109050000000     0          
O10      O      0.447400000000     0.448700000000     0.148900000000     0          
C4       C      0.393000000000     0.439000000000     0.155100000000     0          
C5       C      0.349600000000     0.418600000000     0.203400000000     0          
C6       C      0.291300000000     0.411600000000     0.220900000000     0          
H        H      0.334130000000     0.539500000000     0.802810000000     0          
Zr1      Zr     0.919840000000     0.388930000000     0.525220000000     0          
O1       O      0.986600000000     0.430400000000     0.458000000000     0          
O2       O      0.836000000000     0.368400000000     0.564900000000     0          
O3       O      0.930300000000     0.309300000000     0.516800000000     0          
O6       O      0.868100000000     0.331600000000     0.461400000000     0          
O7       O      0.888900000000     0.393300000000     0.391800000000     0          
C1       C      0.855800000000     0.338200000000     0.411100000000     0          
C2       C      0.796400000000     0.290700000000     0.381600000000     0          
C3       C      0.769100000000     0.292600000000     0.330700000000     0          
O9       O      0.930800000000     0.369100000000     0.609050000000     0          
O10      O      0.998700000000     0.447400000000     0.648900000000     0          
C4       C      0.954000000000     0.393000000000     0.655100000000     0          
C5       C      0.931000000000     0.349600000000     0.703400000000     0          
C6       C      0.879700000000     0.291300000000     0.720900000000     0          
H        H      0.794630000000     0.334130000000     0.302810000000     0          
Zr1      Zr     0.530910000000     0.919840000000     0.025220000000     0          
O1       O      0.556200000000     0.986600000000     0.958000000000     0          
O2       O      0.467600000000     0.836000000000     0.064900000000     0          
O3       O      0.621000000000     0.930300000000     0.016800000000     0          
O6       O      0.536500000000     0.868100000000     0.961400000000     0          
O7       O      0.495600000000     0.888900000000     0.891800000000     0          
C1       C      0.517600000000     0.855800000000     0.911100000000     0          
C2       C      0.505700000000     0.796400000000     0.881600000000     0          
C3       C      0.476500000000     0.769100000000     0.830700000000     0          
O9       O      0.561700000000     0.930800000000     0.109050000000     0          
O10      O      0.551300000000     0.998700000000     0.148900000000     0          
C4       C      0.561000000000     0.954000000000     0.155100000000     0          
C5       C      0.581400000000     0.931000000000     0.203400000000     0          
C6       C      0.588400000000     0.879700000000     0.220900000000     0          
H        H      0.460500000000     0.794630000000     0.802810000000     0          
Zr1      Zr     0.469090000000     0.388930000000     0.974780000000     0          
O1       O      0.443800000000     0.430400000000     0.042000000000     0          
O2       O      0.532400000000     0.368400000000     0.935100000000     0          
O3       O      0.379000000000     0.309300000000     0.983200000000     0          
O6       O      0.463500000000     0.331600000000     0.038600000000     0          
O7       O      0.504400000000     0.393300000000     0.108200000000     0          
C1       C      0.482400000000     0.338200000000     0.088900000000     0          
C2       C      0.494300000000     0.290700000000     0.118400000000     0          
C3       C      0.523500000000     0.292600000000     0.169300000000     0          
O9       O      0.438300000000     0.369100000000     0.890950000000     0          
O10      O      0.448700000000     0.447400000000     0.851100000000     0          
C4       C      0.439000000000     0.393000000000     0.844900000000     0          
C5       C      0.418600000000     0.349600000000     0.796600000000     0          
C6       C      0.411600000000     0.291300000000     0.779100000000     0          
H        H      0.539500000000     0.334130000000     0.197190000000     0          
Zr1      Zr     0.080160000000     0.469090000000     0.474780000000     0          
O1       O      0.013400000000     0.443800000000     0.542000000000     0          
O2       O      0.164000000000     0.532400000000     0.435100000000     0          
O3       O      0.069700000000     0.379000000000     0.483200000000     0          
O6       O      0.131900000000     0.463500000000     0.538600000000     0          
O7       O      0.111100000000     0.504400000000     0.608200000000     0          
C1       C      0.144200000000     0.482400000000     0.588900000000     0          
C2       C      0.203600000000     0.494300000000     0.618400000000     0          
C3       C      0.230900000000     0.523500000000     0.669300000000     0          
O9       O      0.069200000000     0.438300000000     0.390950000000     0          
O10      O      0.001300000000     0.448700000000     0.351100000000     0          
C4       C      0.046000000000     0.439000000000     0.344900000000     0          
C5       C      0.069000000000     0.418600000000     0.296600000000     0          
C6       C      0.120300000000     0.411600000000     0.279100000000     0          
H        H      0.205370000000     0.539500000000     0.697190000000     0          
Zr1      Zr     0.611070000000     0.080160000000     0.974780000000     0          
O1       O      0.569600000000     0.013400000000     0.042000000000     0          
O2       O      0.631600000000     0.164000000000     0.935100000000     0          
O3       O      0.690700000000     0.069700000000     0.983200000000     0          
O6       O      0.668400000000     0.131900000000     0.038600000000     0          
O7       O      0.606700000000     0.111100000000     0.108200000000     0          
C1       C      0.661800000000     0.144200000000     0.088900000000     0          
C2       C      0.709300000000     0.203600000000     0.118400000000     0          
C3       C      0.707400000000     0.230900000000     0.169300000000     0          
O9       O      0.630900000000     0.069200000000     0.890950000000     0          
O10      O      0.552600000000     0.001300000000     0.851100000000     0          
C4       C      0.607000000000     0.046000000000     0.844900000000     0          
C5       C      0.650400000000     0.069000000000     0.796600000000     0          
C6       C      0.708700000000     0.120300000000     0.779100000000     0          
H        H      0.665870000000     0.205370000000     0.197190000000     0          
Zr1      Zr     0.530910000000     0.611070000000     0.474780000000     0          
O1       O      0.556200000000     0.569600000000     0.542000000000     0          
O2       O      0.467600000000     0.631600000000     0.435100000000     0          
O3       O      0.621000000000     0.690700000000     0.483200000000     0          
O6       O      0.536500000000     0.668400000000     0.538600000000     0          
O7       O      0.495600000000     0.606700000000     0.608200000000     0          
C1       C      0.517600000000     0.661800000000     0.588900000000     0          
C2       C      0.505700000000     0.709300000000     0.618400000000     0          
C3       C      0.476500000000     0.707400000000     0.669300000000     0          
O9       O      0.561700000000     0.630900000000     0.390950000000     0          
O10      O      0.551300000000     0.552600000000     0.351100000000     0          
C4       C      0.561000000000     0.607000000000     0.344900000000     0          
C5       C      0.581400000000     0.650400000000     0.296600000000     0          
C6       C      0.588400000000     0.708700000000     0.279100000000     0          
H        H      0.460500000000     0.665870000000     0.697190000000     0          
Zr1      Zr     0.919840000000     0.530910000000     0.974780000000     0          
O1       O      0.986600000000     0.556200000000     0.042000000000     0          
O2       O      0.836000000000     0.467600000000     0.935100000000     0          
O3       O      0.930300000000     0.621000000000     0.983200000000     0          
O6       O      0.868100000000     0.536500000000     0.038600000000     0          
O7       O      0.888900000000     0.495600000000     0.108200000000     0          
C1       C      0.855800000000     0.517600000000     0.088900000000     0          
C2       C      0.796400000000     0.505700000000     0.118400000000     0          
C3       C      0.769100000000     0.476500000000     0.169300000000     0          
O9       O      0.930800000000     0.561700000000     0.890950000000     0          
O10      O      0.998700000000     0.551300000000     0.851100000000     0          
C4       C      0.954000000000     0.561000000000     0.844900000000     0          
C5       C      0.931000000000     0.581400000000     0.796600000000     0          
C6       C      0.879700000000     0.588400000000     0.779100000000     0          
H        H      0.794630000000     0.460500000000     0.197190000000     0          
Zr1      Zr     0.388930000000     0.919840000000     0.474780000000     0          
O1       O      0.430400000000     0.986600000000     0.542000000000     0          
O2       O      0.368400000000     0.836000000000     0.435100000000     0          
O3       O      0.309300000000     0.930300000000     0.483200000000     0          
O6       O      0.331600000000     0.868100000000     0.538600000000     0          
O7       O      0.393300000000     0.888900000000     0.608200000000     0          
C1       C      0.338200000000     0.855800000000     0.588900000000     0          
C2       C      0.290700000000     0.796400000000     0.618400000000     0          
C3       C      0.292600000000     0.769100000000     0.669300000000     0          
O9       O      0.369100000000     0.930800000000     0.390950000000     0          
O10      O      0.447400000000     0.998700000000     0.351100000000     0          
C4       C      0.393000000000     0.954000000000     0.344900000000     0          
C5       C      0.349600000000     0.931000000000     0.296600000000     0          
C6       C      0.291300000000     0.879700000000     0.279100000000     0          
H        H      0.334130000000     0.794630000000     0.697190000000     0          


