data_SANHIY

_audit_creation_method RASPA-1.0
_audit_creation_date 2020-1-15
_audit_author_name 'Rocio Bueno-Perez'

_cell_length_a    17.116
_cell_length_b    14.656
_cell_length_c    13.98
_cell_angle_alpha 90
_cell_angle_beta  93.96
_cell_angle_gamma 90
_cell_volume      3498.54

_symmetry_cell_setting          monoclinic
_symmetry_space_group_name_Hall 'P 1'
_symmetry_space_group_name_H-M  'P 1'
_symmetry_Int_Tables_number     1

_symmetry_equiv_pos_as_xyz 'x,y,z'

loop_
_atom_site_label
_atom_site_type_symbol
_atom_site_fract_x
_atom_site_fract_y
_atom_site_fract_z
_atom_site_charge
Zr1      Zr     0.011500000000     0.216200000000     0.034900000000     0          
O1       O      0.998200000000     0.069300000000     0.092900000000     0          
O2       O      0.012300000000     0.180100000000     0.193300000000     0          
O3       O      0.017000000000     0.343900000000     0.106200000000     0          
O4       O      0.082600000000     0.457600000000     0.044000000000     0          
C1       C      0.001000000000     0.096900000000     0.177700000000     0          
C2       C      0.991000000000     0.034400000000     0.256500000000     0          
C3       C      0.978100000000     0.983600000000     0.317200000000     0          
C4       C      0.043200000000     0.426000000000     0.102600000000     0          
C5       C      0.097000000000     0.192000000000     0.899000000000     0          
C6       C      0.112000000000     0.124200000000     0.959000000000     0          
C7       C      0.150000000000     0.163000000000     0.043000000000     0          
C8       C      0.152000000000     0.257000000000     0.026000000000     0          
C9       C      0.118000000000     0.272000000000     0.940000000000     0          
C10      C      0.906800000000     0.158000000000     0.918000000000     0          
C11      C      0.873700000000     0.166000000000     0.004000000000     0          
C12      C      0.867200000000     0.251000000000     0.029000000000     0          
C13      C      0.899000000000     0.305600000000     0.959000000000     0          
C14      C      0.925000000000     0.246000000000     0.888000000000     0          
H1       H      0.071000000000     0.183700000000     0.827300000000     0          
H2       H      0.099100000000     0.052900000000     0.947100000000     0          
H3       H      0.172300000000     0.127500000000     0.107400000000     0          
H4       H      0.177300000000     0.307800000000     0.074600000000     0          
H5       H      0.108900000000     0.337800000000     0.907500000000     0          
H6       H      0.917000000000     0.095600000000     0.880200000000     0          
H7       H      0.855400000000     0.108500000000     0.045900000000     0          
H8       H      0.842000000000     0.274900000000     0.093000000000     0          
H9       H      0.901800000000     0.379200000000     0.958700000000     0          
H10      H      0.953300000000     0.265000000000     0.824000000000     0          
C4C      C      0.956800000000     0.926000000000     0.397400000000     0          
C3C      C      0.021900000000     0.483600000000     0.182800000000     0          
O3C      O      0.983000000000     0.843900000000     0.393800000000     0          
O4C      O      0.917400000000     0.957600000000     0.456000000000     0          
C2C      C      0.009000000000     0.534400000000     0.243500000000     0          
Zr1C     Zr     0.988500000000     0.716200000000     0.465100000000     0          
C1C      C      0.999000000000     0.596900000000     0.322300000000     0          
O1C      O      0.001800000000     0.569300000000     0.407100000000     0          
O2C      O      0.987700000000     0.680100000000     0.306700000000     0          
C5C      C      0.903000000000     0.692000000000     0.601000000000     0          
C6C      C      0.888000000000     0.624200000000     0.541000000000     0          
C7C      C      0.850000000000     0.663000000000     0.457000000000     0          
C8C      C      0.848000000000     0.757000000000     0.474000000000     0          
C9C      C      0.882000000000     0.772000000000     0.560000000000     0          
C10C     C      0.093200000000     0.658000000000     0.582000000000     0          
C11C     C      0.126300000000     0.666000000000     0.496000000000     0          
C12C     C      0.132800000000     0.751000000000     0.471000000000     0          
C13C     C      0.101000000000     0.805600000000     0.541000000000     0          
C14C     C      0.075000000000     0.746000000000     0.612000000000     0          
H1C      H      0.929000000000     0.683700000000     0.672700000000     0          
H2C      H      0.900900000000     0.552900000000     0.552900000000     0          
H3C      H      0.827700000000     0.627500000000     0.392600000000     0          
H4C      H      0.822700000000     0.807800000000     0.425400000000     0          
H5C      H      0.891100000000     0.837800000000     0.592500000000     0          
H6C      H      0.083000000000     0.595600000000     0.619800000000     0          
H7C      H      0.144600000000     0.608500000000     0.454100000000     0          
H8C      H      0.158000000000     0.774900000000     0.407000000000     0          
H9C      H      0.098200000000     0.879200000000     0.541300000000     0          
H10C     H      0.046700000000     0.765000000000     0.676000000000     0          
Zr1      Zr     0.488500000000     0.216200000000     0.965100000000     0          
O1       O      0.501800000000     0.069300000000     0.907100000000     0          
O2       O      0.487700000000     0.180100000000     0.806700000000     0          
O3       O      0.483000000000     0.343900000000     0.893800000000     0          
O4       O      0.417400000000     0.457600000000     0.956000000000     0          
C1       C      0.499000000000     0.096900000000     0.822300000000     0          
C2       C      0.509000000000     0.034400000000     0.743500000000     0          
C3       C      0.521900000000     0.983600000000     0.682800000000     0          
C4       C      0.456800000000     0.426000000000     0.897400000000     0          
C5       C      0.403000000000     0.192000000000     0.101000000000     0          
C6       C      0.388000000000     0.124200000000     0.041000000000     0          
C7       C      0.350000000000     0.163000000000     0.957000000000     0          
C8       C      0.348000000000     0.257000000000     0.974000000000     0          
C9       C      0.382000000000     0.272000000000     0.060000000000     0          
C10      C      0.593200000000     0.158000000000     0.082000000000     0          
C11      C      0.626300000000     0.166000000000     0.996000000000     0          
C12      C      0.632800000000     0.251000000000     0.971000000000     0          
C13      C      0.601000000000     0.305600000000     0.041000000000     0          
C14      C      0.575000000000     0.246000000000     0.112000000000     0          
H1       H      0.429000000000     0.183700000000     0.172700000000     0          
H2       H      0.400900000000     0.052900000000     0.052900000000     0          
H3       H      0.327700000000     0.127500000000     0.892600000000     0          
H4       H      0.322700000000     0.307800000000     0.925400000000     0          
H5       H      0.391100000000     0.337800000000     0.092500000000     0          
H6       H      0.583000000000     0.095600000000     0.119800000000     0          
H7       H      0.644600000000     0.108500000000     0.954100000000     0          
H8       H      0.658000000000     0.274900000000     0.907000000000     0          
H9       H      0.598200000000     0.379200000000     0.041300000000     0          
H10      H      0.546700000000     0.265000000000     0.176000000000     0          
C4C      C      0.543200000000     0.926000000000     0.602600000000     0          
C3C      C      0.478100000000     0.483600000000     0.817200000000     0          
O3C      O      0.517000000000     0.843900000000     0.606200000000     0          
O4C      O      0.582600000000     0.957600000000     0.544000000000     0          
C2C      C      0.491000000000     0.534400000000     0.756500000000     0          
Zr1C     Zr     0.511500000000     0.716200000000     0.534900000000     0          
C1C      C      0.501000000000     0.596900000000     0.677700000000     0          
O1C      O      0.498200000000     0.569300000000     0.592900000000     0          
O2C      O      0.512300000000     0.680100000000     0.693300000000     0          
C5C      C      0.597000000000     0.692000000000     0.399000000000     0          
C6C      C      0.612000000000     0.624200000000     0.459000000000     0          
C7C      C      0.650000000000     0.663000000000     0.543000000000     0          
C8C      C      0.652000000000     0.757000000000     0.526000000000     0          
C9C      C      0.618000000000     0.772000000000     0.440000000000     0          
C10C     C      0.406800000000     0.658000000000     0.418000000000     0          
C11C     C      0.373700000000     0.666000000000     0.504000000000     0          
C12C     C      0.367200000000     0.751000000000     0.529000000000     0          
C13C     C      0.399000000000     0.805600000000     0.459000000000     0          
C14C     C      0.425000000000     0.746000000000     0.388000000000     0          
H1C      H      0.571000000000     0.683700000000     0.327300000000     0          
H2C      H      0.599100000000     0.552900000000     0.447100000000     0          
H3C      H      0.672300000000     0.627500000000     0.607400000000     0          
H4C      H      0.677300000000     0.807800000000     0.574600000000     0          
H5C      H      0.608900000000     0.837800000000     0.407500000000     0          
H6C      H      0.417000000000     0.595600000000     0.380200000000     0          
H7C      H      0.355400000000     0.608500000000     0.545900000000     0          
H8C      H      0.342000000000     0.774900000000     0.593000000000     0          
H9C      H      0.401800000000     0.879200000000     0.458700000000     0          
H10C     H      0.453300000000     0.765000000000     0.324000000000     0          
Zr1      Zr     0.988500000000     0.783800000000     0.965100000000     0          
O1       O      0.001800000000     0.930700000000     0.907100000000     0          
O2       O      0.987700000000     0.819900000000     0.806700000000     0          
O3       O      0.983000000000     0.656100000000     0.893800000000     0          
O4       O      0.917400000000     0.542400000000     0.956000000000     0          
C1       C      0.999000000000     0.903100000000     0.822300000000     0          
C2       C      0.009000000000     0.965600000000     0.743500000000     0          
C3       C      0.021900000000     0.016400000000     0.682800000000     0          
C4       C      0.956800000000     0.574000000000     0.897400000000     0          
C5       C      0.903000000000     0.808000000000     0.101000000000     0          
C6       C      0.888000000000     0.875800000000     0.041000000000     0          
C7       C      0.850000000000     0.837000000000     0.957000000000     0          
C8       C      0.848000000000     0.743000000000     0.974000000000     0          
C9       C      0.882000000000     0.728000000000     0.060000000000     0          
C10      C      0.093200000000     0.842000000000     0.082000000000     0          
C11      C      0.126300000000     0.834000000000     0.996000000000     0          
C12      C      0.132800000000     0.749000000000     0.971000000000     0          
C13      C      0.101000000000     0.694400000000     0.041000000000     0          
C14      C      0.075000000000     0.754000000000     0.112000000000     0          
H1       H      0.929000000000     0.816300000000     0.172700000000     0          
H2       H      0.900900000000     0.947100000000     0.052900000000     0          
H3       H      0.827700000000     0.872500000000     0.892600000000     0          
H4       H      0.822700000000     0.692200000000     0.925400000000     0          
H5       H      0.891100000000     0.662200000000     0.092500000000     0          
H6       H      0.083000000000     0.904400000000     0.119800000000     0          
H7       H      0.144600000000     0.891500000000     0.954100000000     0          
H8       H      0.158000000000     0.725100000000     0.907000000000     0          
H9       H      0.098200000000     0.620800000000     0.041300000000     0          
H10      H      0.046700000000     0.735000000000     0.176000000000     0          
C4C      C      0.043200000000     0.074000000000     0.602600000000     0          
C3C      C      0.978100000000     0.516400000000     0.817200000000     0          
O3C      O      0.017000000000     0.156100000000     0.606200000000     0          
O4C      O      0.082600000000     0.042400000000     0.544000000000     0          
C2C      C      0.991000000000     0.465600000000     0.756500000000     0          
Zr1C     Zr     0.011500000000     0.283800000000     0.534900000000     0          
C1C      C      0.001000000000     0.403100000000     0.677700000000     0          
O1C      O      0.998200000000     0.430700000000     0.592900000000     0          
O2C      O      0.012300000000     0.319900000000     0.693300000000     0          
C5C      C      0.097000000000     0.308000000000     0.399000000000     0          
C6C      C      0.112000000000     0.375800000000     0.459000000000     0          
C7C      C      0.150000000000     0.337000000000     0.543000000000     0          
C8C      C      0.152000000000     0.243000000000     0.526000000000     0          
C9C      C      0.118000000000     0.228000000000     0.440000000000     0          
C10C     C      0.906800000000     0.342000000000     0.418000000000     0          
C11C     C      0.873700000000     0.334000000000     0.504000000000     0          
C12C     C      0.867200000000     0.249000000000     0.529000000000     0          
C13C     C      0.899000000000     0.194400000000     0.459000000000     0          
C14C     C      0.925000000000     0.254000000000     0.388000000000     0          
H1C      H      0.071000000000     0.316300000000     0.327300000000     0          
H2C      H      0.099100000000     0.447100000000     0.447100000000     0          
H3C      H      0.172300000000     0.372500000000     0.607400000000     0          
H4C      H      0.177300000000     0.192200000000     0.574600000000     0          
H5C      H      0.108900000000     0.162200000000     0.407500000000     0          
H6C      H      0.917000000000     0.404400000000     0.380200000000     0          
H7C      H      0.855400000000     0.391500000000     0.545900000000     0          
H8C      H      0.842000000000     0.225100000000     0.593000000000     0          
H9C      H      0.901800000000     0.120800000000     0.458700000000     0          
H10C     H      0.953300000000     0.235000000000     0.324000000000     0          
Zr1      Zr     0.511500000000     0.783800000000     0.034900000000     0          
O1       O      0.498200000000     0.930700000000     0.092900000000     0          
O2       O      0.512300000000     0.819900000000     0.193300000000     0          
O3       O      0.517000000000     0.656100000000     0.106200000000     0          
O4       O      0.582600000000     0.542400000000     0.044000000000     0          
C1       C      0.501000000000     0.903100000000     0.177700000000     0          
C2       C      0.491000000000     0.965600000000     0.256500000000     0          
C3       C      0.478100000000     0.016400000000     0.317200000000     0          
C4       C      0.543200000000     0.574000000000     0.102600000000     0          
C5       C      0.597000000000     0.808000000000     0.899000000000     0          
C6       C      0.612000000000     0.875800000000     0.959000000000     0          
C7       C      0.650000000000     0.837000000000     0.043000000000     0          
C8       C      0.652000000000     0.743000000000     0.026000000000     0          
C9       C      0.618000000000     0.728000000000     0.940000000000     0          
C10      C      0.406800000000     0.842000000000     0.918000000000     0          
C11      C      0.373700000000     0.834000000000     0.004000000000     0          
C12      C      0.367200000000     0.749000000000     0.029000000000     0          
C13      C      0.399000000000     0.694400000000     0.959000000000     0          
C14      C      0.425000000000     0.754000000000     0.888000000000     0          
H1       H      0.571000000000     0.816300000000     0.827300000000     0          
H2       H      0.599100000000     0.947100000000     0.947100000000     0          
H3       H      0.672300000000     0.872500000000     0.107400000000     0          
H4       H      0.677300000000     0.692200000000     0.074600000000     0          
H5       H      0.608900000000     0.662200000000     0.907500000000     0          
H6       H      0.417000000000     0.904400000000     0.880200000000     0          
H7       H      0.355400000000     0.891500000000     0.045900000000     0          
H8       H      0.342000000000     0.725100000000     0.093000000000     0          
H9       H      0.401800000000     0.620800000000     0.958700000000     0          
H10      H      0.453300000000     0.735000000000     0.824000000000     0          
C4C      C      0.456800000000     0.074000000000     0.397400000000     0          
C3C      C      0.521900000000     0.516400000000     0.182800000000     0          
O3C      O      0.483000000000     0.156100000000     0.393800000000     0          
O4C      O      0.417400000000     0.042400000000     0.456000000000     0          
C2C      C      0.509000000000     0.465600000000     0.243500000000     0          
Zr1C     Zr     0.488500000000     0.283800000000     0.465100000000     0          
C1C      C      0.499000000000     0.403100000000     0.322300000000     0          
O1C      O      0.501800000000     0.430700000000     0.407100000000     0          
O2C      O      0.487700000000     0.319900000000     0.306700000000     0          
C5C      C      0.403000000000     0.308000000000     0.601000000000     0          
C6C      C      0.388000000000     0.375800000000     0.541000000000     0          
C7C      C      0.350000000000     0.337000000000     0.457000000000     0          
C8C      C      0.348000000000     0.243000000000     0.474000000000     0          
C9C      C      0.382000000000     0.228000000000     0.560000000000     0          
C10C     C      0.593200000000     0.342000000000     0.582000000000     0          
C11C     C      0.626300000000     0.334000000000     0.496000000000     0          
C12C     C      0.632800000000     0.249000000000     0.471000000000     0          
C13C     C      0.601000000000     0.194400000000     0.541000000000     0          
C14C     C      0.575000000000     0.254000000000     0.612000000000     0          
H1C      H      0.429000000000     0.316300000000     0.672700000000     0          
H2C      H      0.400900000000     0.447100000000     0.552900000000     0          
H3C      H      0.327700000000     0.372500000000     0.392600000000     0          
H4C      H      0.322700000000     0.192200000000     0.425400000000     0          
H5C      H      0.391100000000     0.162200000000     0.592500000000     0          
H6C      H      0.583000000000     0.404400000000     0.619800000000     0          
H7C      H      0.644600000000     0.391500000000     0.454100000000     0          
H8C      H      0.658000000000     0.225100000000     0.407000000000     0          
H9C      H      0.598200000000     0.120800000000     0.541300000000     0          
H10C     H      0.546700000000     0.235000000000     0.676000000000     0          


