data_SELKEC

_audit_creation_method RASPA-1.0
_audit_creation_date 2020-11-2
_audit_author_name 'Rocio Bueno-Perez'

_cell_length_a    23.874
_cell_length_b    23.874
_cell_length_c    15.894
_cell_angle_alpha 90
_cell_angle_beta  90
_cell_angle_gamma 90
_cell_volume      9059.07

_symmetry_cell_setting          tetragonal
_symmetry_space_group_name_Hall 'P 1'
_symmetry_space_group_name_H-M  'P 1'
_symmetry_Int_Tables_number     1

_symmetry_equiv_pos_as_xyz 'x,y,z'

loop_
_atom_site_label
_atom_site_type_symbol
_atom_site_fract_x
_atom_site_fract_y
_atom_site_fract_z
_atom_site_charge
C1       C      0.092300000000     0.365600000000     0.369900000000     0          
C2       C      0.130300000000     0.323600000000     0.329800000000     0          
C3       C      0.127100000000     0.269200000000     0.361500000000     0          
H1       H      0.100900000000     0.260500000000     0.404500000000     0          
C4       C      0.163000000000     0.227100000000     0.329700000000     0          
C5       C      0.199900000000     0.242000000000     0.266800000000     0          
C6       C      0.202000000000     0.296800000000     0.234400000000     0          
H2       H      0.226300000000     0.305800000000     0.189000000000     0          
C7       C      0.167600000000     0.337600000000     0.270600000000     0          
H3       H      0.170700000000     0.375500000000     0.253100000000     0          
C8       C      0.163300000000     0.168200000000     0.368300000000     0          
H4       H      0.137100000000     0.166800000000     0.415600000000     0          
H5       H      0.201100000000     0.159300000000     0.388300000000     0          
H6       H      0.152100000000     0.140800000000     0.325600000000     0          
O1       O      0.054570000000     0.350450000000     0.418400000000     0          
O2       O      0.102900000000     0.416300000000     0.346100000000     0          
Zr1      Zr     0.073360000000     0.500000000000     0.389390000000     0          
C9       C      0.030700000000     0.500000000000     0.206000000000     0          
C10      C      0.030500000000     0.500000000000     0.114600000000     0          
O6       O      0.071300000000     0.500000000000     0.253600000000     0          
O7       O      0.068300000000     0.500000000000     0.060600000000     0          
Zr2      Zr     0.000000000000     0.398170000000     0.500000000000     0          
O3       O      0.072600000000     0.450700000000     0.500000000000     0          
O4       O      0.000000000000     0.549600000000     0.390100000000     0          
C1       C      0.634400000000     0.092300000000     0.869900000000     0          
C2       C      0.676400000000     0.130300000000     0.829800000000     0          
C3       C      0.730800000000     0.127100000000     0.861500000000     0          
H1       H      0.739500000000     0.100900000000     0.904500000000     0          
C4       C      0.772900000000     0.163000000000     0.829700000000     0          
C5       C      0.758000000000     0.199900000000     0.766800000000     0          
C6       C      0.703200000000     0.202000000000     0.734400000000     0          
H2       H      0.694200000000     0.226300000000     0.689000000000     0          
C7       C      0.662400000000     0.167600000000     0.770600000000     0          
H3       H      0.624500000000     0.170700000000     0.753100000000     0          
C8       C      0.831800000000     0.163300000000     0.868300000000     0          
H4       H      0.833200000000     0.137100000000     0.915600000000     0          
H5       H      0.840700000000     0.201100000000     0.888300000000     0          
H6       H      0.859200000000     0.152100000000     0.825600000000     0          
O1       O      0.649550000000     0.054570000000     0.918400000000     0          
O2       O      0.583700000000     0.102900000000     0.846100000000     0          
Zr1      Zr     0.500000000000     0.073360000000     0.889390000000     0          
C9       C      0.500000000000     0.030700000000     0.706000000000     0          
C10      C      0.500000000000     0.030500000000     0.614600000000     0          
O6       O      0.500000000000     0.071300000000     0.753600000000     0          
O7       O      0.500000000000     0.068300000000     0.560600000000     0          
Zr2      Zr     0.601830000000     0.000000000000     0.000000000000     0          
O3       O      0.549300000000     0.072600000000     0.000000000000     0          
O4       O      0.450400000000     0.000000000000     0.890100000000     0          
C1       C      0.907700000000     0.634400000000     0.369900000000     0          
C2       C      0.869700000000     0.676400000000     0.329800000000     0          
C3       C      0.872900000000     0.730800000000     0.361500000000     0          
H1       H      0.899100000000     0.739500000000     0.404500000000     0          
C4       C      0.837000000000     0.772900000000     0.329700000000     0          
C5       C      0.800100000000     0.758000000000     0.266800000000     0          
C6       C      0.798000000000     0.703200000000     0.234400000000     0          
H2       H      0.773700000000     0.694200000000     0.189000000000     0          
C7       C      0.832400000000     0.662400000000     0.270600000000     0          
H3       H      0.829300000000     0.624500000000     0.253100000000     0          
C8       C      0.836700000000     0.831800000000     0.368300000000     0          
H4       H      0.862900000000     0.833200000000     0.415600000000     0          
H5       H      0.798900000000     0.840700000000     0.388300000000     0          
H6       H      0.847900000000     0.859200000000     0.325600000000     0          
O1       O      0.945430000000     0.649550000000     0.418400000000     0          
O2       O      0.897100000000     0.583700000000     0.346100000000     0          
Zr1      Zr     0.926640000000     0.500000000000     0.389390000000     0          
C9       C      0.969300000000     0.500000000000     0.206000000000     0          
C10      C      0.969500000000     0.500000000000     0.114600000000     0          
O6       O      0.928700000000     0.500000000000     0.253600000000     0          
O7       O      0.931700000000     0.500000000000     0.060600000000     0          
Zr2      Zr     0.000000000000     0.601830000000     0.500000000000     0          
O3       O      0.927400000000     0.549300000000     0.500000000000     0          
O4       O      0.000000000000     0.450400000000     0.390100000000     0          
C1       C      0.365600000000     0.907700000000     0.869900000000     0          
C2       C      0.323600000000     0.869700000000     0.829800000000     0          
C3       C      0.269200000000     0.872900000000     0.861500000000     0          
H1       H      0.260500000000     0.899100000000     0.904500000000     0          
C4       C      0.227100000000     0.837000000000     0.829700000000     0          
C5       C      0.242000000000     0.800100000000     0.766800000000     0          
C6       C      0.296800000000     0.798000000000     0.734400000000     0          
H2       H      0.305800000000     0.773700000000     0.689000000000     0          
C7       C      0.337600000000     0.832400000000     0.770600000000     0          
H3       H      0.375500000000     0.829300000000     0.753100000000     0          
C8       C      0.168200000000     0.836700000000     0.868300000000     0          
H4       H      0.166800000000     0.862900000000     0.915600000000     0          
H5       H      0.159300000000     0.798900000000     0.888300000000     0          
H6       H      0.140800000000     0.847900000000     0.825600000000     0          
O1       O      0.350450000000     0.945430000000     0.918400000000     0          
O2       O      0.416300000000     0.897100000000     0.846100000000     0          
Zr1      Zr     0.500000000000     0.926640000000     0.889390000000     0          
C9       C      0.500000000000     0.969300000000     0.706000000000     0          
C10      C      0.500000000000     0.969500000000     0.614600000000     0          
O6       O      0.500000000000     0.928700000000     0.753600000000     0          
O7       O      0.500000000000     0.931700000000     0.560600000000     0          
Zr2      Zr     0.398170000000     0.000000000000     0.000000000000     0          
O3       O      0.450700000000     0.927400000000     0.000000000000     0          
O4       O      0.549600000000     0.000000000000     0.890100000000     0          
C1       C      0.092300000000     0.634400000000     0.630100000000     0          
C2       C      0.130300000000     0.676400000000     0.670200000000     0          
C3       C      0.127100000000     0.730800000000     0.638500000000     0          
H1       H      0.100900000000     0.739500000000     0.595500000000     0          
C4       C      0.163000000000     0.772900000000     0.670300000000     0          
C5       C      0.199900000000     0.758000000000     0.733200000000     0          
C6       C      0.202000000000     0.703200000000     0.765600000000     0          
H2       H      0.226300000000     0.694200000000     0.811000000000     0          
C7       C      0.167600000000     0.662400000000     0.729400000000     0          
H3       H      0.170700000000     0.624500000000     0.746900000000     0          
C8       C      0.163300000000     0.831800000000     0.631700000000     0          
H4       H      0.137100000000     0.833200000000     0.584400000000     0          
H5       H      0.201100000000     0.840700000000     0.611700000000     0          
H6       H      0.152100000000     0.859200000000     0.674400000000     0          
O1       O      0.054570000000     0.649550000000     0.581600000000     0          
O2       O      0.102900000000     0.583700000000     0.653900000000     0          
Zr1      Zr     0.073360000000     0.500000000000     0.610610000000     0          
C9       C      0.030700000000     0.500000000000     0.794000000000     0          
C10      C      0.030500000000     0.500000000000     0.885400000000     0          
O6       O      0.071300000000     0.500000000000     0.746400000000     0          
O7       O      0.068300000000     0.500000000000     0.939400000000     0          
O3       O      0.072600000000     0.549300000000     0.500000000000     0          
O4       O      0.000000000000     0.450400000000     0.609900000000     0          
C1       C      0.365600000000     0.092300000000     0.130100000000     0          
C2       C      0.323600000000     0.130300000000     0.170200000000     0          
C3       C      0.269200000000     0.127100000000     0.138500000000     0          
H1       H      0.260500000000     0.100900000000     0.095500000000     0          
C4       C      0.227100000000     0.163000000000     0.170300000000     0          
C5       C      0.242000000000     0.199900000000     0.233200000000     0          
C6       C      0.296800000000     0.202000000000     0.265600000000     0          
H2       H      0.305800000000     0.226300000000     0.311000000000     0          
C7       C      0.337600000000     0.167600000000     0.229400000000     0          
H3       H      0.375500000000     0.170700000000     0.246900000000     0          
C8       C      0.168200000000     0.163300000000     0.131700000000     0          
H4       H      0.166800000000     0.137100000000     0.084400000000     0          
H5       H      0.159300000000     0.201100000000     0.111700000000     0          
H6       H      0.140800000000     0.152100000000     0.174400000000     0          
O1       O      0.350450000000     0.054570000000     0.081600000000     0          
O2       O      0.416300000000     0.102900000000     0.153900000000     0          
Zr1      Zr     0.500000000000     0.073360000000     0.110610000000     0          
C9       C      0.500000000000     0.030700000000     0.294000000000     0          
C10      C      0.500000000000     0.030500000000     0.385400000000     0          
O6       O      0.500000000000     0.071300000000     0.246400000000     0          
O7       O      0.500000000000     0.068300000000     0.439400000000     0          
O3       O      0.450700000000     0.072600000000     0.000000000000     0          
O4       O      0.549600000000     0.000000000000     0.109900000000     0          
C1       C      0.907700000000     0.365600000000     0.630100000000     0          
C2       C      0.869700000000     0.323600000000     0.670200000000     0          
C3       C      0.872900000000     0.269200000000     0.638500000000     0          
H1       H      0.899100000000     0.260500000000     0.595500000000     0          
C4       C      0.837000000000     0.227100000000     0.670300000000     0          
C5       C      0.800100000000     0.242000000000     0.733200000000     0          
C6       C      0.798000000000     0.296800000000     0.765600000000     0          
H2       H      0.773700000000     0.305800000000     0.811000000000     0          
C7       C      0.832400000000     0.337600000000     0.729400000000     0          
H3       H      0.829300000000     0.375500000000     0.746900000000     0          
C8       C      0.836700000000     0.168200000000     0.631700000000     0          
H4       H      0.862900000000     0.166800000000     0.584400000000     0          
H5       H      0.798900000000     0.159300000000     0.611700000000     0          
H6       H      0.847900000000     0.140800000000     0.674400000000     0          
O1       O      0.945430000000     0.350450000000     0.581600000000     0          
O2       O      0.897100000000     0.416300000000     0.653900000000     0          
Zr1      Zr     0.926640000000     0.500000000000     0.610610000000     0          
C9       C      0.969300000000     0.500000000000     0.794000000000     0          
C10      C      0.969500000000     0.500000000000     0.885400000000     0          
O6       O      0.928700000000     0.500000000000     0.746400000000     0          
O7       O      0.931700000000     0.500000000000     0.939400000000     0          
O3       O      0.927400000000     0.450700000000     0.500000000000     0          
O4       O      0.000000000000     0.549600000000     0.609900000000     0          
C1       C      0.634400000000     0.907700000000     0.130100000000     0          
C2       C      0.676400000000     0.869700000000     0.170200000000     0          
C3       C      0.730800000000     0.872900000000     0.138500000000     0          
H1       H      0.739500000000     0.899100000000     0.095500000000     0          
C4       C      0.772900000000     0.837000000000     0.170300000000     0          
C5       C      0.758000000000     0.800100000000     0.233200000000     0          
C6       C      0.703200000000     0.798000000000     0.265600000000     0          
H2       H      0.694200000000     0.773700000000     0.311000000000     0          
C7       C      0.662400000000     0.832400000000     0.229400000000     0          
H3       H      0.624500000000     0.829300000000     0.246900000000     0          
C8       C      0.831800000000     0.836700000000     0.131700000000     0          
H4       H      0.833200000000     0.862900000000     0.084400000000     0          
H5       H      0.840700000000     0.798900000000     0.111700000000     0          
H6       H      0.859200000000     0.847900000000     0.174400000000     0          
O1       O      0.649550000000     0.945430000000     0.081600000000     0          
O2       O      0.583700000000     0.897100000000     0.153900000000     0          
Zr1      Zr     0.500000000000     0.926640000000     0.110610000000     0          
C9       C      0.500000000000     0.969300000000     0.294000000000     0          
C10      C      0.500000000000     0.969500000000     0.385400000000     0          
O6       O      0.500000000000     0.928700000000     0.246400000000     0          
O7       O      0.500000000000     0.931700000000     0.439400000000     0          
O3       O      0.549300000000     0.927400000000     0.000000000000     0          
O4       O      0.450400000000     0.000000000000     0.109900000000     0          
C1       C      0.907700000000     0.634400000000     0.630100000000     0          
C2       C      0.869700000000     0.676400000000     0.670200000000     0          
C3       C      0.872900000000     0.730800000000     0.638500000000     0          
H1       H      0.899100000000     0.739500000000     0.595500000000     0          
C4       C      0.837000000000     0.772900000000     0.670300000000     0          
C5       C      0.800100000000     0.758000000000     0.733200000000     0          
C6       C      0.798000000000     0.703200000000     0.765600000000     0          
H2       H      0.773700000000     0.694200000000     0.811000000000     0          
C7       C      0.832400000000     0.662400000000     0.729400000000     0          
H3       H      0.829300000000     0.624500000000     0.746900000000     0          
C8       C      0.836700000000     0.831800000000     0.631700000000     0          
H4       H      0.862900000000     0.833200000000     0.584400000000     0          
H5       H      0.798900000000     0.840700000000     0.611700000000     0          
H6       H      0.847900000000     0.859200000000     0.674400000000     0          
O1       O      0.945430000000     0.649550000000     0.581600000000     0          
O2       O      0.897100000000     0.583700000000     0.653900000000     0          
C1       C      0.365600000000     0.907700000000     0.130100000000     0          
C2       C      0.323600000000     0.869700000000     0.170200000000     0          
C3       C      0.269200000000     0.872900000000     0.138500000000     0          
H1       H      0.260500000000     0.899100000000     0.095500000000     0          
C4       C      0.227100000000     0.837000000000     0.170300000000     0          
C5       C      0.242000000000     0.800100000000     0.233200000000     0          
C6       C      0.296800000000     0.798000000000     0.265600000000     0          
H2       H      0.305800000000     0.773700000000     0.311000000000     0          
C7       C      0.337600000000     0.832400000000     0.229400000000     0          
H3       H      0.375500000000     0.829300000000     0.246900000000     0          
C8       C      0.168200000000     0.836700000000     0.131700000000     0          
H4       H      0.166800000000     0.862900000000     0.084400000000     0          
H5       H      0.159300000000     0.798900000000     0.111700000000     0          
H6       H      0.140800000000     0.847900000000     0.174400000000     0          
O1       O      0.350450000000     0.945430000000     0.081600000000     0          
O2       O      0.416300000000     0.897100000000     0.153900000000     0          
C1       C      0.092300000000     0.365600000000     0.630100000000     0          
C2       C      0.130300000000     0.323600000000     0.670200000000     0          
C3       C      0.127100000000     0.269200000000     0.638500000000     0          
H1       H      0.100900000000     0.260500000000     0.595500000000     0          
C4       C      0.163000000000     0.227100000000     0.670300000000     0          
C5       C      0.199900000000     0.242000000000     0.733200000000     0          
C6       C      0.202000000000     0.296800000000     0.765600000000     0          
H2       H      0.226300000000     0.305800000000     0.811000000000     0          
C7       C      0.167600000000     0.337600000000     0.729400000000     0          
H3       H      0.170700000000     0.375500000000     0.746900000000     0          
C8       C      0.163300000000     0.168200000000     0.631700000000     0          
H4       H      0.137100000000     0.166800000000     0.584400000000     0          
H5       H      0.201100000000     0.159300000000     0.611700000000     0          
H6       H      0.152100000000     0.140800000000     0.674400000000     0          
O1       O      0.054570000000     0.350450000000     0.581600000000     0          
O2       O      0.102900000000     0.416300000000     0.653900000000     0          
C1       C      0.634400000000     0.092300000000     0.130100000000     0          
C2       C      0.676400000000     0.130300000000     0.170200000000     0          
C3       C      0.730800000000     0.127100000000     0.138500000000     0          
H1       H      0.739500000000     0.100900000000     0.095500000000     0          
C4       C      0.772900000000     0.163000000000     0.170300000000     0          
C5       C      0.758000000000     0.199900000000     0.233200000000     0          
C6       C      0.703200000000     0.202000000000     0.265600000000     0          
H2       H      0.694200000000     0.226300000000     0.311000000000     0          
C7       C      0.662400000000     0.167600000000     0.229400000000     0          
H3       H      0.624500000000     0.170700000000     0.246900000000     0          
C8       C      0.831800000000     0.163300000000     0.131700000000     0          
H4       H      0.833200000000     0.137100000000     0.084400000000     0          
H5       H      0.840700000000     0.201100000000     0.111700000000     0          
H6       H      0.859200000000     0.152100000000     0.174400000000     0          
O1       O      0.649550000000     0.054570000000     0.081600000000     0          
O2       O      0.583700000000     0.102900000000     0.153900000000     0          
C1       C      0.907700000000     0.365600000000     0.369900000000     0          
C2       C      0.869700000000     0.323600000000     0.329800000000     0          
C3       C      0.872900000000     0.269200000000     0.361500000000     0          
H1       H      0.899100000000     0.260500000000     0.404500000000     0          
C4       C      0.837000000000     0.227100000000     0.329700000000     0          
C5       C      0.800100000000     0.242000000000     0.266800000000     0          
C6       C      0.798000000000     0.296800000000     0.234400000000     0          
H2       H      0.773700000000     0.305800000000     0.189000000000     0          
C7       C      0.832400000000     0.337600000000     0.270600000000     0          
H3       H      0.829300000000     0.375500000000     0.253100000000     0          
C8       C      0.836700000000     0.168200000000     0.368300000000     0          
H4       H      0.862900000000     0.166800000000     0.415600000000     0          
H5       H      0.798900000000     0.159300000000     0.388300000000     0          
H6       H      0.847900000000     0.140800000000     0.325600000000     0          
O1       O      0.945430000000     0.350450000000     0.418400000000     0          
O2       O      0.897100000000     0.416300000000     0.346100000000     0          
C1       C      0.634400000000     0.907700000000     0.869900000000     0          
C2       C      0.676400000000     0.869700000000     0.829800000000     0          
C3       C      0.730800000000     0.872900000000     0.861500000000     0          
H1       H      0.739500000000     0.899100000000     0.904500000000     0          
C4       C      0.772900000000     0.837000000000     0.829700000000     0          
C5       C      0.758000000000     0.800100000000     0.766800000000     0          
C6       C      0.703200000000     0.798000000000     0.734400000000     0          
H2       H      0.694200000000     0.773700000000     0.689000000000     0          
C7       C      0.662400000000     0.832400000000     0.770600000000     0          
H3       H      0.624500000000     0.829300000000     0.753100000000     0          
C8       C      0.831800000000     0.836700000000     0.868300000000     0          
H4       H      0.833200000000     0.862900000000     0.915600000000     0          
H5       H      0.840700000000     0.798900000000     0.888300000000     0          
H6       H      0.859200000000     0.847900000000     0.825600000000     0          
O1       O      0.649550000000     0.945430000000     0.918400000000     0          
O2       O      0.583700000000     0.897100000000     0.846100000000     0          
C1       C      0.092300000000     0.634400000000     0.369900000000     0          
C2       C      0.130300000000     0.676400000000     0.329800000000     0          
C3       C      0.127100000000     0.730800000000     0.361500000000     0          
H1       H      0.100900000000     0.739500000000     0.404500000000     0          
C4       C      0.163000000000     0.772900000000     0.329700000000     0          
C5       C      0.199900000000     0.758000000000     0.266800000000     0          
C6       C      0.202000000000     0.703200000000     0.234400000000     0          
H2       H      0.226300000000     0.694200000000     0.189000000000     0          
C7       C      0.167600000000     0.662400000000     0.270600000000     0          
H3       H      0.170700000000     0.624500000000     0.253100000000     0          
C8       C      0.163300000000     0.831800000000     0.368300000000     0          
H4       H      0.137100000000     0.833200000000     0.415600000000     0          
H5       H      0.201100000000     0.840700000000     0.388300000000     0          
H6       H      0.152100000000     0.859200000000     0.325600000000     0          
O1       O      0.054570000000     0.649550000000     0.418400000000     0          
O2       O      0.102900000000     0.583700000000     0.346100000000     0          
C1       C      0.365600000000     0.092300000000     0.869900000000     0          
C2       C      0.323600000000     0.130300000000     0.829800000000     0          
C3       C      0.269200000000     0.127100000000     0.861500000000     0          
H1       H      0.260500000000     0.100900000000     0.904500000000     0          
C4       C      0.227100000000     0.163000000000     0.829700000000     0          
C5       C      0.242000000000     0.199900000000     0.766800000000     0          
C6       C      0.296800000000     0.202000000000     0.734400000000     0          
H2       H      0.305800000000     0.226300000000     0.689000000000     0          
C7       C      0.337600000000     0.167600000000     0.770600000000     0          
H3       H      0.375500000000     0.170700000000     0.753100000000     0          
C8       C      0.168200000000     0.163300000000     0.868300000000     0          
H4       H      0.166800000000     0.137100000000     0.915600000000     0          
H5       H      0.159300000000     0.201100000000     0.888300000000     0          
H6       H      0.140800000000     0.152100000000     0.825600000000     0          
O1       O      0.350450000000     0.054570000000     0.918400000000     0          
O2       O      0.416300000000     0.102900000000     0.846100000000     0          


