data_SELKIG

_audit_creation_method RASPA-1.0
_audit_creation_date 2020-11-2
_audit_author_name 'Rocio Bueno-Perez'

_cell_length_a    23.637
_cell_length_b    23.637
_cell_length_c    16.995
_cell_angle_alpha 90
_cell_angle_beta  90
_cell_angle_gamma 90
_cell_volume      9495.24

_symmetry_cell_setting          triclinic
_symmetry_space_group_name_Hall 'P 1'
_symmetry_space_group_name_H-M  'P 1'
_symmetry_Int_Tables_number     1

_symmetry_equiv_pos_as_xyz 'x,y,z'

loop_
_atom_site_label
_atom_site_type_symbol
_atom_site_fract_x
_atom_site_fract_y
_atom_site_fract_z
_atom_site_charge
C1       C      0.906300000000     0.635800000000     0.629200000000     0          
C2       C      0.869700000000     0.678700000000     0.662500000000     0          
C3       C      0.828200000000     0.662100000000     0.714900000000     0          
H4       H      0.823100000000     0.622800000000     0.724500000000     0          
C5       C      0.793400000000     0.700800000000     0.754500000000     0          
H6       H      0.766300000000     0.689300000000     0.792600000000     0          
C7       C      0.801500000000     0.759200000000     0.733200000000     0          
C8       C      0.840800000000     0.775100000000     0.686700000000     0          
C9       C      0.875000000000     0.733600000000     0.643000000000     0          
H10      H      0.900100000000     0.745300000000     0.602400000000     0          
C11      C      0.836300000000     0.832800000000     0.637300000000     0          
H12      H      0.868700000000     0.835900000000     0.601700000000     0          
H13      H      0.836100000000     0.865100000000     0.673500000000     0          
H14      H      0.801200000000     0.832700000000     0.606600000000     0          
O15      O      0.943640000000     0.652320000000     0.577400000000     0          
O16      O      0.895600000000     0.585800000000     0.644400000000     0          
C17      C      0.093700000000     0.364200000000     0.629200000000     0          
C18      C      0.130300000000     0.321300000000     0.662500000000     0          
C19      C      0.171800000000     0.337900000000     0.714900000000     0          
H20      H      0.176900000000     0.377200000000     0.724500000000     0          
C21      C      0.206600000000     0.299200000000     0.754500000000     0          
H22      H      0.233700000000     0.310700000000     0.792600000000     0          
C23      C      0.198500000000     0.240800000000     0.733200000000     0          
C24      C      0.159200000000     0.224900000000     0.686700000000     0          
C25      C      0.125000000000     0.266400000000     0.643000000000     0          
H26      H      0.099900000000     0.254700000000     0.602400000000     0          
C27      C      0.163700000000     0.167200000000     0.637300000000     0          
H28      H      0.131300000000     0.164100000000     0.601700000000     0          
H29      H      0.163900000000     0.134900000000     0.673500000000     0          
H30      H      0.198800000000     0.167300000000     0.606600000000     0          
O31      O      0.056360000000     0.347680000000     0.577400000000     0          
O32      O      0.104400000000     0.414200000000     0.644400000000     0          
C33      C      0.364200000000     0.906300000000     0.129200000000     0          
C34      C      0.321300000000     0.869700000000     0.162500000000     0          
C35      C      0.337900000000     0.828200000000     0.214900000000     0          
H36      H      0.377200000000     0.823100000000     0.224500000000     0          
C37      C      0.299200000000     0.793400000000     0.254500000000     0          
H38      H      0.310700000000     0.766300000000     0.292600000000     0          
C39      C      0.240800000000     0.801500000000     0.233200000000     0          
C40      C      0.224900000000     0.840800000000     0.186700000000     0          
C41      C      0.266400000000     0.875000000000     0.143000000000     0          
H42      H      0.254700000000     0.900100000000     0.102400000000     0          
C43      C      0.167200000000     0.836300000000     0.137300000000     0          
H44      H      0.164100000000     0.868700000000     0.101700000000     0          
H45      H      0.134900000000     0.836100000000     0.173500000000     0          
H46      H      0.167300000000     0.801200000000     0.106600000000     0          
O47      O      0.347680000000     0.943640000000     0.077400000000     0          
O48      O      0.414200000000     0.895600000000     0.144400000000     0          
C49      C      0.635800000000     0.093700000000     0.129200000000     0          
C50      C      0.678700000000     0.130300000000     0.162500000000     0          
C51      C      0.662100000000     0.171800000000     0.214900000000     0          
H52      H      0.622800000000     0.176900000000     0.224500000000     0          
C53      C      0.700800000000     0.206600000000     0.254500000000     0          
H54      H      0.689300000000     0.233700000000     0.292600000000     0          
C55      C      0.759200000000     0.198500000000     0.233200000000     0          
C56      C      0.775100000000     0.159200000000     0.186700000000     0          
C57      C      0.733600000000     0.125000000000     0.143000000000     0          
H58      H      0.745300000000     0.099900000000     0.102400000000     0          
C59      C      0.832800000000     0.163700000000     0.137300000000     0          
H60      H      0.835900000000     0.131300000000     0.101700000000     0          
H61      H      0.865100000000     0.163900000000     0.173500000000     0          
H62      H      0.832700000000     0.198800000000     0.106600000000     0          
O63      O      0.652320000000     0.056360000000     0.077400000000     0          
O64      O      0.585800000000     0.104400000000     0.144400000000     0          
C65      C      0.093700000000     0.635800000000     0.370800000000     0          
C66      C      0.130300000000     0.678700000000     0.337500000000     0          
C67      C      0.171800000000     0.662100000000     0.285100000000     0          
H68      H      0.176900000000     0.622800000000     0.275500000000     0          
C69      C      0.206600000000     0.700800000000     0.245500000000     0          
H70      H      0.233700000000     0.689300000000     0.207400000000     0          
C71      C      0.198500000000     0.759200000000     0.266800000000     0          
C72      C      0.159200000000     0.775100000000     0.313300000000     0          
C73      C      0.125000000000     0.733600000000     0.357000000000     0          
H74      H      0.099900000000     0.745300000000     0.397600000000     0          
C75      C      0.163700000000     0.832800000000     0.362700000000     0          
H76      H      0.131300000000     0.835900000000     0.398300000000     0          
H77      H      0.163900000000     0.865100000000     0.326500000000     0          
H78      H      0.198800000000     0.832700000000     0.393400000000     0          
O79      O      0.056360000000     0.652320000000     0.422600000000     0          
O80      O      0.104400000000     0.585800000000     0.355600000000     0          
C81      C      0.906300000000     0.364200000000     0.370800000000     0          
C82      C      0.869700000000     0.321300000000     0.337500000000     0          
C83      C      0.828200000000     0.337900000000     0.285100000000     0          
H84      H      0.823100000000     0.377200000000     0.275500000000     0          
C85      C      0.793400000000     0.299200000000     0.245500000000     0          
H86      H      0.766300000000     0.310700000000     0.207400000000     0          
C87      C      0.801500000000     0.240800000000     0.266800000000     0          
C88      C      0.840800000000     0.224900000000     0.313300000000     0          
C89      C      0.875000000000     0.266400000000     0.357000000000     0          
H90      H      0.900100000000     0.254700000000     0.397600000000     0          
C91      C      0.836300000000     0.167200000000     0.362700000000     0          
H92      H      0.868700000000     0.164100000000     0.398300000000     0          
H93      H      0.836100000000     0.134900000000     0.326500000000     0          
H94      H      0.801200000000     0.167300000000     0.393400000000     0          
O95      O      0.943640000000     0.347680000000     0.422600000000     0          
O96      O      0.895600000000     0.414200000000     0.355600000000     0          
C97      C      0.635800000000     0.906300000000     0.870800000000     0          
C98      C      0.678700000000     0.869700000000     0.837500000000     0          
C99      C      0.662100000000     0.828200000000     0.785100000000     0          
H100     H      0.622800000000     0.823100000000     0.775500000000     0          
C101     C      0.700800000000     0.793400000000     0.745500000000     0          
H102     H      0.689300000000     0.766300000000     0.707400000000     0          
C103     C      0.759200000000     0.801500000000     0.766800000000     0          
C104     C      0.775100000000     0.840800000000     0.813300000000     0          
C105     C      0.733600000000     0.875000000000     0.857000000000     0          
H106     H      0.745300000000     0.900100000000     0.897600000000     0          
C107     C      0.832800000000     0.836300000000     0.862700000000     0          
H108     H      0.835900000000     0.868700000000     0.898300000000     0          
H109     H      0.865100000000     0.836100000000     0.826500000000     0          
H110     H      0.832700000000     0.801200000000     0.893400000000     0          
O111     O      0.652320000000     0.943640000000     0.922600000000     0          
O112     O      0.585800000000     0.895600000000     0.855600000000     0          
C113     C      0.364200000000     0.093700000000     0.870800000000     0          
C114     C      0.321300000000     0.130300000000     0.837500000000     0          
C115     C      0.337900000000     0.171800000000     0.785100000000     0          
H116     H      0.377200000000     0.176900000000     0.775500000000     0          
C117     C      0.299200000000     0.206600000000     0.745500000000     0          
H118     H      0.310700000000     0.233700000000     0.707400000000     0          
C119     C      0.240800000000     0.198500000000     0.766800000000     0          
C120     C      0.224900000000     0.159200000000     0.813300000000     0          
C121     C      0.266400000000     0.125000000000     0.857000000000     0          
H122     H      0.254700000000     0.099900000000     0.897600000000     0          
C123     C      0.167200000000     0.163700000000     0.862700000000     0          
H124     H      0.164100000000     0.131300000000     0.898300000000     0          
H125     H      0.134900000000     0.163900000000     0.826500000000     0          
H126     H      0.167300000000     0.198800000000     0.893400000000     0          
O127     O      0.347680000000     0.056360000000     0.922600000000     0          
O128     O      0.414200000000     0.104400000000     0.855600000000     0          
C129     C      0.093700000000     0.364200000000     0.370800000000     0          
C130     C      0.130300000000     0.321300000000     0.337500000000     0          
C131     C      0.171800000000     0.337900000000     0.285100000000     0          
H132     H      0.176900000000     0.377200000000     0.275500000000     0          
C133     C      0.206600000000     0.299200000000     0.245500000000     0          
H134     H      0.233700000000     0.310700000000     0.207400000000     0          
C135     C      0.198500000000     0.240800000000     0.266800000000     0          
C136     C      0.159200000000     0.224900000000     0.313300000000     0          
C137     C      0.125000000000     0.266400000000     0.357000000000     0          
H138     H      0.099900000000     0.254700000000     0.397600000000     0          
C139     C      0.163700000000     0.167200000000     0.362700000000     0          
H140     H      0.131300000000     0.164100000000     0.398300000000     0          
H141     H      0.163900000000     0.134900000000     0.326500000000     0          
H142     H      0.198800000000     0.167300000000     0.393400000000     0          
O143     O      0.056360000000     0.347680000000     0.422600000000     0          
O144     O      0.104400000000     0.414200000000     0.355600000000     0          
C145     C      0.906300000000     0.635800000000     0.370800000000     0          
C146     C      0.869700000000     0.678700000000     0.337500000000     0          
C147     C      0.828200000000     0.662100000000     0.285100000000     0          
H148     H      0.823100000000     0.622800000000     0.275500000000     0          
C149     C      0.793400000000     0.700800000000     0.245500000000     0          
H150     H      0.766300000000     0.689300000000     0.207400000000     0          
C151     C      0.801500000000     0.759200000000     0.266800000000     0          
C152     C      0.840800000000     0.775100000000     0.313300000000     0          
C153     C      0.875000000000     0.733600000000     0.357000000000     0          
H154     H      0.900100000000     0.745300000000     0.397600000000     0          
C155     C      0.836300000000     0.832800000000     0.362700000000     0          
H156     H      0.868700000000     0.835900000000     0.398300000000     0          
H157     H      0.836100000000     0.865100000000     0.326500000000     0          
H158     H      0.801200000000     0.832700000000     0.393400000000     0          
O159     O      0.943640000000     0.652320000000     0.422600000000     0          
O160     O      0.895600000000     0.585800000000     0.355600000000     0          
C161     C      0.635800000000     0.093700000000     0.870800000000     0          
C162     C      0.678700000000     0.130300000000     0.837500000000     0          
C163     C      0.662100000000     0.171800000000     0.785100000000     0          
H164     H      0.622800000000     0.176900000000     0.775500000000     0          
C165     C      0.700800000000     0.206600000000     0.745500000000     0          
H166     H      0.689300000000     0.233700000000     0.707400000000     0          
C167     C      0.759200000000     0.198500000000     0.766800000000     0          
C168     C      0.775100000000     0.159200000000     0.813300000000     0          
C169     C      0.733600000000     0.125000000000     0.857000000000     0          
H170     H      0.745300000000     0.099900000000     0.897600000000     0          
C171     C      0.832800000000     0.163700000000     0.862700000000     0          
H172     H      0.835900000000     0.131300000000     0.898300000000     0          
H173     H      0.865100000000     0.163900000000     0.826500000000     0          
H174     H      0.832700000000     0.198800000000     0.893400000000     0          
O175     O      0.652320000000     0.056360000000     0.922600000000     0          
O176     O      0.585800000000     0.104400000000     0.855600000000     0          
C177     C      0.364200000000     0.906300000000     0.870800000000     0          
C178     C      0.321300000000     0.869700000000     0.837500000000     0          
C179     C      0.337900000000     0.828200000000     0.785100000000     0          
H180     H      0.377200000000     0.823100000000     0.775500000000     0          
C181     C      0.299200000000     0.793400000000     0.745500000000     0          
H182     H      0.310700000000     0.766300000000     0.707400000000     0          
C183     C      0.240800000000     0.801500000000     0.766800000000     0          
C184     C      0.224900000000     0.840800000000     0.813300000000     0          
C185     C      0.266400000000     0.875000000000     0.857000000000     0          
H186     H      0.254700000000     0.900100000000     0.897600000000     0          
C187     C      0.167200000000     0.836300000000     0.862700000000     0          
H188     H      0.164100000000     0.868700000000     0.898300000000     0          
H189     H      0.134900000000     0.836100000000     0.826500000000     0          
H190     H      0.167300000000     0.801200000000     0.893400000000     0          
O191     O      0.347680000000     0.943640000000     0.922600000000     0          
O192     O      0.414200000000     0.895600000000     0.855600000000     0          
C193     C      0.906300000000     0.364200000000     0.629200000000     0          
C194     C      0.869700000000     0.321300000000     0.662500000000     0          
C195     C      0.828200000000     0.337900000000     0.714900000000     0          
H196     H      0.823100000000     0.377200000000     0.724500000000     0          
C197     C      0.793400000000     0.299200000000     0.754500000000     0          
H198     H      0.766300000000     0.310700000000     0.792600000000     0          
C199     C      0.801500000000     0.240800000000     0.733200000000     0          
C200     C      0.840800000000     0.224900000000     0.686700000000     0          
C201     C      0.875000000000     0.266400000000     0.643000000000     0          
H202     H      0.900100000000     0.254700000000     0.602400000000     0          
C203     C      0.836300000000     0.167200000000     0.637300000000     0          
H204     H      0.868700000000     0.164100000000     0.601700000000     0          
H205     H      0.836100000000     0.134900000000     0.673500000000     0          
H206     H      0.801200000000     0.167300000000     0.606600000000     0          
O207     O      0.943640000000     0.347680000000     0.577400000000     0          
O208     O      0.895600000000     0.414200000000     0.644400000000     0          
C209     C      0.093700000000     0.635800000000     0.629200000000     0          
C210     C      0.130300000000     0.678700000000     0.662500000000     0          
C211     C      0.171800000000     0.662100000000     0.714900000000     0          
H212     H      0.176900000000     0.622800000000     0.724500000000     0          
C213     C      0.206600000000     0.700800000000     0.754500000000     0          
H214     H      0.233700000000     0.689300000000     0.792600000000     0          
C215     C      0.198500000000     0.759200000000     0.733200000000     0          
C216     C      0.159200000000     0.775100000000     0.686700000000     0          
C217     C      0.125000000000     0.733600000000     0.643000000000     0          
H218     H      0.099900000000     0.745300000000     0.602400000000     0          
C219     C      0.163700000000     0.832800000000     0.637300000000     0          
H220     H      0.131300000000     0.835900000000     0.601700000000     0          
H221     H      0.163900000000     0.865100000000     0.673500000000     0          
H222     H      0.198800000000     0.832700000000     0.606600000000     0          
O223     O      0.056360000000     0.652320000000     0.577400000000     0          
O224     O      0.104400000000     0.585800000000     0.644400000000     0          
C225     C      0.364200000000     0.093700000000     0.129200000000     0          
C226     C      0.321300000000     0.130300000000     0.162500000000     0          
C227     C      0.337900000000     0.171800000000     0.214900000000     0          
H228     H      0.377200000000     0.176900000000     0.224500000000     0          
C229     C      0.299200000000     0.206600000000     0.254500000000     0          
H230     H      0.310700000000     0.233700000000     0.292600000000     0          
C231     C      0.240800000000     0.198500000000     0.233200000000     0          
C232     C      0.224900000000     0.159200000000     0.186700000000     0          
C233     C      0.266400000000     0.125000000000     0.143000000000     0          
H234     H      0.254700000000     0.099900000000     0.102400000000     0          
C235     C      0.167200000000     0.163700000000     0.137300000000     0          
H236     H      0.164100000000     0.131300000000     0.101700000000     0          
H237     H      0.134900000000     0.163900000000     0.173500000000     0          
H238     H      0.167300000000     0.198800000000     0.106600000000     0          
O239     O      0.347680000000     0.056360000000     0.077400000000     0          
O240     O      0.414200000000     0.104400000000     0.144400000000     0          
C241     C      0.635800000000     0.906300000000     0.129200000000     0          
C242     C      0.678700000000     0.869700000000     0.162500000000     0          
C243     C      0.662100000000     0.828200000000     0.214900000000     0          
H244     H      0.622800000000     0.823100000000     0.224500000000     0          
C245     C      0.700800000000     0.793400000000     0.254500000000     0          
H246     H      0.689300000000     0.766300000000     0.292600000000     0          
C247     C      0.759200000000     0.801500000000     0.233200000000     0          
C248     C      0.775100000000     0.840800000000     0.186700000000     0          
C249     C      0.733600000000     0.875000000000     0.143000000000     0          
H250     H      0.745300000000     0.900100000000     0.102400000000     0          
C251     C      0.832800000000     0.836300000000     0.137300000000     0          
H252     H      0.835900000000     0.868700000000     0.101700000000     0          
H253     H      0.865100000000     0.836100000000     0.173500000000     0          
H254     H      0.832700000000     0.801200000000     0.106600000000     0          
O255     O      0.652320000000     0.943640000000     0.077400000000     0          
O256     O      0.585800000000     0.895600000000     0.144400000000     0          
Zr257    Zr     0.925650000000     0.500000000000     0.603310000000     0          
Zr258    Zr     0.074350000000     0.500000000000     0.603310000000     0          
C259     C      0.197900000000     0.500000000000     0.661800000000     0          
C260     C      0.174600000000     0.500000000000     0.752100000000     0          
C261     C      0.117600000000     0.500000000000     0.772800000000     0          
C262     C      0.095000000000     0.500000000000     0.850100000000     0          
H263     H      0.055800000000     0.500000000000     0.862300000000     0          
C264     C      0.218200000000     0.500000000000     0.808600000000     0          
H265     H      0.257800000000     0.500000000000     0.798400000000     0          
C266     C      0.193500000000     0.500000000000     0.879100000000     0          
C267     C      0.139200000000     0.500000000000     0.907000000000     0          
O268     O      0.166100000000     0.500000000000     0.602000000000     0          
O269     O      0.071600000000     0.500000000000     0.731200000000     0          
O270     O      0.251500000000     0.500000000000     0.654400000000     0          
O271     O      0.242700000000     0.500000000000     0.917400000000     0          
O272     O      0.164900000000     0.500000000000     0.055700000000     0          
Zr273    Zr     0.500000000000     0.925650000000     0.103310000000     0          
Zr274    Zr     0.500000000000     0.074350000000     0.103310000000     0          
C275     C      0.500000000000     0.197900000000     0.161800000000     0          
C276     C      0.500000000000     0.174600000000     0.252100000000     0          
C277     C      0.500000000000     0.117600000000     0.272800000000     0          
C278     C      0.500000000000     0.095000000000     0.350100000000     0          
H279     H      0.500000000000     0.055800000000     0.362300000000     0          
C280     C      0.500000000000     0.218200000000     0.308600000000     0          
H281     H      0.500000000000     0.257800000000     0.298400000000     0          
C282     C      0.500000000000     0.193500000000     0.379100000000     0          
C283     C      0.500000000000     0.139200000000     0.407000000000     0          
O284     O      0.500000000000     0.166100000000     0.102000000000     0          
O285     O      0.500000000000     0.071600000000     0.231200000000     0          
O286     O      0.500000000000     0.251500000000     0.154400000000     0          
O287     O      0.500000000000     0.242700000000     0.417400000000     0          
O288     O      0.500000000000     0.164900000000     0.555700000000     0          
Zr289    Zr     0.074350000000     0.500000000000     0.396690000000     0          
Zr290    Zr     0.925650000000     0.500000000000     0.396690000000     0          
C291     C      0.802100000000     0.500000000000     0.338200000000     0          
C292     C      0.825400000000     0.500000000000     0.247900000000     0          
C293     C      0.882400000000     0.500000000000     0.227200000000     0          
C294     C      0.905000000000     0.500000000000     0.149900000000     0          
H295     H      0.944200000000     0.500000000000     0.137700000000     0          
C296     C      0.781800000000     0.500000000000     0.191400000000     0          
H297     H      0.742200000000     0.500000000000     0.201600000000     0          
C298     C      0.806500000000     0.500000000000     0.120900000000     0          
C299     C      0.860800000000     0.500000000000     0.093000000000     0          
O300     O      0.833900000000     0.500000000000     0.398000000000     0          
O301     O      0.928400000000     0.500000000000     0.268800000000     0          
O302     O      0.748500000000     0.500000000000     0.345600000000     0          
O303     O      0.757300000000     0.500000000000     0.082600000000     0          
O304     O      0.835100000000     0.500000000000     0.944300000000     0          
Zr305    Zr     0.500000000000     0.925650000000     0.896690000000     0          
C306     C      0.500000000000     0.802100000000     0.838200000000     0          
C307     C      0.500000000000     0.825400000000     0.747900000000     0          
C308     C      0.500000000000     0.882400000000     0.727200000000     0          
C309     C      0.500000000000     0.905000000000     0.649900000000     0          
H310     H      0.500000000000     0.944200000000     0.637700000000     0          
C311     C      0.500000000000     0.781800000000     0.691400000000     0          
H312     H      0.500000000000     0.742200000000     0.701600000000     0          
C313     C      0.500000000000     0.806500000000     0.620900000000     0          
C314     C      0.500000000000     0.860800000000     0.593000000000     0          
O315     O      0.500000000000     0.833900000000     0.898000000000     0          
O316     O      0.500000000000     0.928400000000     0.768800000000     0          
O317     O      0.500000000000     0.748500000000     0.845600000000     0          
O318     O      0.500000000000     0.757300000000     0.582600000000     0          
O319     O      0.500000000000     0.835100000000     0.444300000000     0          
Zr320    Zr     0.500000000000     0.074350000000     0.896690000000     0          
Zr321    Zr     0.000000000000     0.395960000000     0.500000000000     0          
Zr322    Zr     0.000000000000     0.604040000000     0.500000000000     0          
Zr323    Zr     0.604040000000     0.000000000000     0.000000000000     0          
Zr324    Zr     0.395960000000     0.000000000000     0.000000000000     0          
C325     C      0.871700000000     0.500000000000     0.000000000000     0          
O326     O      0.924500000000     0.500000000000     0.000000000000     0          
C327     C      0.128300000000     0.500000000000     0.000000000000     0          
O328     O      0.075500000000     0.500000000000     0.000000000000     0          
C329     C      0.500000000000     0.871700000000     0.500000000000     0          
O330     O      0.500000000000     0.924500000000     0.500000000000     0          
C331     C      0.500000000000     0.128300000000     0.500000000000     0          
O332     O      0.500000000000     0.075500000000     0.500000000000     0          
O333     O      0.925600000000     0.449200000000     0.500000000000     0          
O334     O      0.074400000000     0.550800000000     0.500000000000     0          
O335     O      0.550800000000     0.925600000000     0.000000000000     0          
O336     O      0.449200000000     0.074400000000     0.000000000000     0          
O337     O      0.074400000000     0.449200000000     0.500000000000     0          
O338     O      0.925600000000     0.550800000000     0.500000000000     0          
O339     O      0.449200000000     0.925600000000     0.000000000000     0          
O340     O      0.550800000000     0.074400000000     0.000000000000     0          
O341     O      0.000000000000     0.449500000000     0.606200000000     0          
O342     O      0.000000000000     0.550500000000     0.606200000000     0          
O343     O      0.550500000000     0.000000000000     0.106200000000     0          
O344     O      0.449500000000     0.000000000000     0.106200000000     0          
O345     O      0.000000000000     0.449500000000     0.393800000000     0          
O346     O      0.000000000000     0.550500000000     0.393800000000     0          
O347     O      0.449500000000     0.000000000000     0.893800000000     0          
O348     O      0.550500000000     0.000000000000     0.893800000000     0          
H349     H      0.529110000000     0.727350000000     0.612450000000     0          
H350     H      0.529110000000     0.240070000000     0.468520000000     0          
H351     H      0.727350000000     0.529110000000     0.112450000000     0          
H352     H      0.240070000000     0.529110000000     0.968520000000     0          


