data_SELLED

_audit_creation_method RASPA-1.0
_audit_creation_date 2020-11-2
_audit_author_name 'Rocio Bueno-Perez'

_cell_length_a    23.797
_cell_length_b    23.797
_cell_length_c    16.355
_cell_angle_alpha 90
_cell_angle_beta  90
_cell_angle_gamma 90
_cell_volume      9261.79

_symmetry_cell_setting          tetragonal
_symmetry_space_group_name_Hall 'P 1'
_symmetry_space_group_name_H-M  'P 1'
_symmetry_Int_Tables_number     1

_symmetry_equiv_pos_as_xyz 'x,y,z'

loop_
_atom_site_label
_atom_site_type_symbol
_atom_site_fract_x
_atom_site_fract_y
_atom_site_fract_z
_atom_site_charge
C1       C      0.593600000000     0.865100000000     0.628500000000     0          
C2       C      0.630300000000     0.822700000000     0.666200000000     0          
C3       C      0.629200000000     0.768400000000     0.638600000000     0          
H1       H      0.603400000000     0.758700000000     0.596500000000     0          
C4       C      0.664800000000     0.726200000000     0.670000000000     0          
C5       C      0.701100000000     0.742100000000     0.732900000000     0          
C6       C      0.701900000000     0.796600000000     0.759700000000     0          
H2       H      0.727000000000     0.807000000000     0.802300000000     0          
C7       C      0.667300000000     0.836400000000     0.726300000000     0          
H3       H      0.669200000000     0.874000000000     0.745300000000     0          
C8       C      0.667200000000     0.666700000000     0.632000000000     0          
H4       H      0.645000000000     0.640700000000     0.665500000000     0          
H5       H      0.706300000000     0.653900000000     0.630100000000     0          
H6       H      0.651800000000     0.667800000000     0.576500000000     0          
O3       O      0.555560000000     0.849880000000     0.580300000000     0          
O4       O      0.603320000000     0.915410000000     0.650100000000     0          
Zr1      Zr     0.500000000000     0.897400000000     0.500000000000     0          
Zr2      Zr     0.426360000000     0.000000000000     0.607190000000     0          
C9       C      0.470600000000     0.000000000000     0.787900000000     0          
C10      C      0.469600000000     0.000000000000     0.873600000000     0          
C11      C      0.303300000000     0.000000000000     0.543100000000     0          
C12      C      0.242800000000     0.000000000000     0.543300000000     0          
O5       O      0.431700000000     0.000000000000     0.739600000000     0          
O6       O      0.418700000000     0.000000000000     0.927200000000     0          
O7       O      0.334800000000     0.000000000000     0.602300000000     0          
O8       O      0.218100000000     0.000000000000     0.608200000000     0          
O1       O      0.500000000000     0.949600000000     0.605400000000     0          
O2       O      0.574100000000     0.949600000000     0.500000000000     0          
C1       C      0.134900000000     0.593600000000     0.128500000000     0          
C2       C      0.177300000000     0.630300000000     0.166200000000     0          
C3       C      0.231600000000     0.629200000000     0.138600000000     0          
H1       H      0.241300000000     0.603400000000     0.096500000000     0          
C4       C      0.273800000000     0.664800000000     0.170000000000     0          
C5       C      0.257900000000     0.701100000000     0.232900000000     0          
C6       C      0.203400000000     0.701900000000     0.259700000000     0          
H2       H      0.193000000000     0.727000000000     0.302300000000     0          
C7       C      0.163600000000     0.667300000000     0.226300000000     0          
H3       H      0.126000000000     0.669200000000     0.245300000000     0          
C8       C      0.333300000000     0.667200000000     0.132000000000     0          
H4       H      0.359300000000     0.645000000000     0.165500000000     0          
H5       H      0.346100000000     0.706300000000     0.130100000000     0          
H6       H      0.332200000000     0.651800000000     0.076500000000     0          
O3       O      0.150120000000     0.555560000000     0.080300000000     0          
O4       O      0.084590000000     0.603320000000     0.150100000000     0          
Zr1      Zr     0.102600000000     0.500000000000     0.000000000000     0          
Zr2      Zr     0.000000000000     0.426360000000     0.107190000000     0          
C9       C      0.000000000000     0.470600000000     0.287900000000     0          
C10      C      0.000000000000     0.469600000000     0.373600000000     0          
C11      C      0.000000000000     0.303300000000     0.043100000000     0          
C12      C      0.000000000000     0.242800000000     0.043300000000     0          
O5       O      0.000000000000     0.431700000000     0.239600000000     0          
O6       O      0.000000000000     0.418700000000     0.427200000000     0          
O7       O      0.000000000000     0.334800000000     0.102300000000     0          
O8       O      0.000000000000     0.218100000000     0.108200000000     0          
O1       O      0.050400000000     0.500000000000     0.105400000000     0          
O2       O      0.050400000000     0.574100000000     0.000000000000     0          
C1       C      0.406400000000     0.134900000000     0.628500000000     0          
C2       C      0.369700000000     0.177300000000     0.666200000000     0          
C3       C      0.370800000000     0.231600000000     0.638600000000     0          
H1       H      0.396600000000     0.241300000000     0.596500000000     0          
C4       C      0.335200000000     0.273800000000     0.670000000000     0          
C5       C      0.298900000000     0.257900000000     0.732900000000     0          
C6       C      0.298100000000     0.203400000000     0.759700000000     0          
H2       H      0.273000000000     0.193000000000     0.802300000000     0          
C7       C      0.332700000000     0.163600000000     0.726300000000     0          
H3       H      0.330800000000     0.126000000000     0.745300000000     0          
C8       C      0.332800000000     0.333300000000     0.632000000000     0          
H4       H      0.355000000000     0.359300000000     0.665500000000     0          
H5       H      0.293700000000     0.346100000000     0.630100000000     0          
H6       H      0.348200000000     0.332200000000     0.576500000000     0          
O3       O      0.444440000000     0.150120000000     0.580300000000     0          
O4       O      0.396680000000     0.084590000000     0.650100000000     0          
Zr1      Zr     0.500000000000     0.102600000000     0.500000000000     0          
Zr2      Zr     0.573640000000     0.000000000000     0.607190000000     0          
C9       C      0.529400000000     0.000000000000     0.787900000000     0          
C10      C      0.530400000000     0.000000000000     0.873600000000     0          
C11      C      0.696700000000     0.000000000000     0.543100000000     0          
C12      C      0.757200000000     0.000000000000     0.543300000000     0          
O5       O      0.568300000000     0.000000000000     0.739600000000     0          
O6       O      0.581300000000     0.000000000000     0.927200000000     0          
O7       O      0.665200000000     0.000000000000     0.602300000000     0          
O8       O      0.781900000000     0.000000000000     0.608200000000     0          
O1       O      0.500000000000     0.050400000000     0.605400000000     0          
O2       O      0.425900000000     0.050400000000     0.500000000000     0          
C1       C      0.865100000000     0.406400000000     0.128500000000     0          
C2       C      0.822700000000     0.369700000000     0.166200000000     0          
C3       C      0.768400000000     0.370800000000     0.138600000000     0          
H1       H      0.758700000000     0.396600000000     0.096500000000     0          
C4       C      0.726200000000     0.335200000000     0.170000000000     0          
C5       C      0.742100000000     0.298900000000     0.232900000000     0          
C6       C      0.796600000000     0.298100000000     0.259700000000     0          
H2       H      0.807000000000     0.273000000000     0.302300000000     0          
C7       C      0.836400000000     0.332700000000     0.226300000000     0          
H3       H      0.874000000000     0.330800000000     0.245300000000     0          
C8       C      0.666700000000     0.332800000000     0.132000000000     0          
H4       H      0.640700000000     0.355000000000     0.165500000000     0          
H5       H      0.653900000000     0.293700000000     0.130100000000     0          
H6       H      0.667800000000     0.348200000000     0.076500000000     0          
O3       O      0.849880000000     0.444440000000     0.080300000000     0          
O4       O      0.915410000000     0.396680000000     0.150100000000     0          
Zr1      Zr     0.897400000000     0.500000000000     0.000000000000     0          
Zr2      Zr     0.000000000000     0.573640000000     0.107190000000     0          
C9       C      0.000000000000     0.529400000000     0.287900000000     0          
C10      C      0.000000000000     0.530400000000     0.373600000000     0          
C11      C      0.000000000000     0.696700000000     0.043100000000     0          
C12      C      0.000000000000     0.757200000000     0.043300000000     0          
O5       O      0.000000000000     0.568300000000     0.239600000000     0          
O6       O      0.000000000000     0.581300000000     0.427200000000     0          
O7       O      0.000000000000     0.665200000000     0.102300000000     0          
O8       O      0.000000000000     0.781900000000     0.108200000000     0          
O1       O      0.949600000000     0.500000000000     0.105400000000     0          
O2       O      0.949600000000     0.425900000000     0.000000000000     0          
C1       C      0.593600000000     0.134900000000     0.371500000000     0          
C2       C      0.630300000000     0.177300000000     0.333800000000     0          
C3       C      0.629200000000     0.231600000000     0.361400000000     0          
H1       H      0.603400000000     0.241300000000     0.403500000000     0          
C4       C      0.664800000000     0.273800000000     0.330000000000     0          
C5       C      0.701100000000     0.257900000000     0.267100000000     0          
C6       C      0.701900000000     0.203400000000     0.240300000000     0          
H2       H      0.727000000000     0.193000000000     0.197700000000     0          
C7       C      0.667300000000     0.163600000000     0.273700000000     0          
H3       H      0.669200000000     0.126000000000     0.254700000000     0          
C8       C      0.667200000000     0.333300000000     0.368000000000     0          
H4       H      0.645000000000     0.359300000000     0.334500000000     0          
H5       H      0.706300000000     0.346100000000     0.369900000000     0          
H6       H      0.651800000000     0.332200000000     0.423500000000     0          
O3       O      0.555560000000     0.150120000000     0.419700000000     0          
O4       O      0.603320000000     0.084590000000     0.349900000000     0          
Zr2      Zr     0.426360000000     0.000000000000     0.392810000000     0          
C9       C      0.470600000000     0.000000000000     0.212100000000     0          
C10      C      0.469600000000     0.000000000000     0.126400000000     0          
C11      C      0.303300000000     0.000000000000     0.456900000000     0          
C12      C      0.242800000000     0.000000000000     0.456700000000     0          
O5       O      0.431700000000     0.000000000000     0.260400000000     0          
O6       O      0.418700000000     0.000000000000     0.072800000000     0          
O7       O      0.334800000000     0.000000000000     0.397700000000     0          
O8       O      0.218100000000     0.000000000000     0.391800000000     0          
O1       O      0.500000000000     0.050400000000     0.394600000000     0          
O2       O      0.574100000000     0.050400000000     0.500000000000     0          
C1       C      0.865100000000     0.593600000000     0.871500000000     0          
C2       C      0.822700000000     0.630300000000     0.833800000000     0          
C3       C      0.768400000000     0.629200000000     0.861400000000     0          
H1       H      0.758700000000     0.603400000000     0.903500000000     0          
C4       C      0.726200000000     0.664800000000     0.830000000000     0          
C5       C      0.742100000000     0.701100000000     0.767100000000     0          
C6       C      0.796600000000     0.701900000000     0.740300000000     0          
H2       H      0.807000000000     0.727000000000     0.697700000000     0          
C7       C      0.836400000000     0.667300000000     0.773700000000     0          
H3       H      0.874000000000     0.669200000000     0.754700000000     0          
C8       C      0.666700000000     0.667200000000     0.868000000000     0          
H4       H      0.640700000000     0.645000000000     0.834500000000     0          
H5       H      0.653900000000     0.706300000000     0.869900000000     0          
H6       H      0.667800000000     0.651800000000     0.923500000000     0          
O3       O      0.849880000000     0.555560000000     0.919700000000     0          
O4       O      0.915410000000     0.603320000000     0.849900000000     0          
Zr2      Zr     0.000000000000     0.426360000000     0.892810000000     0          
C9       C      0.000000000000     0.470600000000     0.712100000000     0          
C10      C      0.000000000000     0.469600000000     0.626400000000     0          
C11      C      0.000000000000     0.303300000000     0.956900000000     0          
C12      C      0.000000000000     0.242800000000     0.956700000000     0          
O5       O      0.000000000000     0.431700000000     0.760400000000     0          
O6       O      0.000000000000     0.418700000000     0.572800000000     0          
O7       O      0.000000000000     0.334800000000     0.897700000000     0          
O8       O      0.000000000000     0.218100000000     0.891800000000     0          
O1       O      0.949600000000     0.500000000000     0.894600000000     0          
O2       O      0.949600000000     0.574100000000     0.000000000000     0          
C1       C      0.406400000000     0.865100000000     0.371500000000     0          
C2       C      0.369700000000     0.822700000000     0.333800000000     0          
C3       C      0.370800000000     0.768400000000     0.361400000000     0          
H1       H      0.396600000000     0.758700000000     0.403500000000     0          
C4       C      0.335200000000     0.726200000000     0.330000000000     0          
C5       C      0.298900000000     0.742100000000     0.267100000000     0          
C6       C      0.298100000000     0.796600000000     0.240300000000     0          
H2       H      0.273000000000     0.807000000000     0.197700000000     0          
C7       C      0.332700000000     0.836400000000     0.273700000000     0          
H3       H      0.330800000000     0.874000000000     0.254700000000     0          
C8       C      0.332800000000     0.666700000000     0.368000000000     0          
H4       H      0.355000000000     0.640700000000     0.334500000000     0          
H5       H      0.293700000000     0.653900000000     0.369900000000     0          
H6       H      0.348200000000     0.667800000000     0.423500000000     0          
O3       O      0.444440000000     0.849880000000     0.419700000000     0          
O4       O      0.396680000000     0.915410000000     0.349900000000     0          
Zr2      Zr     0.573640000000     0.000000000000     0.392810000000     0          
C9       C      0.529400000000     0.000000000000     0.212100000000     0          
C10      C      0.530400000000     0.000000000000     0.126400000000     0          
C11      C      0.696700000000     0.000000000000     0.456900000000     0          
C12      C      0.757200000000     0.000000000000     0.456700000000     0          
O5       O      0.568300000000     0.000000000000     0.260400000000     0          
O6       O      0.581300000000     0.000000000000     0.072800000000     0          
O7       O      0.665200000000     0.000000000000     0.397700000000     0          
O8       O      0.781900000000     0.000000000000     0.391800000000     0          
O1       O      0.500000000000     0.949600000000     0.394600000000     0          
O2       O      0.425900000000     0.949600000000     0.500000000000     0          
C1       C      0.134900000000     0.406400000000     0.871500000000     0          
C2       C      0.177300000000     0.369700000000     0.833800000000     0          
C3       C      0.231600000000     0.370800000000     0.861400000000     0          
H1       H      0.241300000000     0.396600000000     0.903500000000     0          
C4       C      0.273800000000     0.335200000000     0.830000000000     0          
C5       C      0.257900000000     0.298900000000     0.767100000000     0          
C6       C      0.203400000000     0.298100000000     0.740300000000     0          
H2       H      0.193000000000     0.273000000000     0.697700000000     0          
C7       C      0.163600000000     0.332700000000     0.773700000000     0          
H3       H      0.126000000000     0.330800000000     0.754700000000     0          
C8       C      0.333300000000     0.332800000000     0.868000000000     0          
H4       H      0.359300000000     0.355000000000     0.834500000000     0          
H5       H      0.346100000000     0.293700000000     0.869900000000     0          
H6       H      0.332200000000     0.348200000000     0.923500000000     0          
O3       O      0.150120000000     0.444440000000     0.919700000000     0          
O4       O      0.084590000000     0.396680000000     0.849900000000     0          
Zr2      Zr     0.000000000000     0.573640000000     0.892810000000     0          
C9       C      0.000000000000     0.529400000000     0.712100000000     0          
C10      C      0.000000000000     0.530400000000     0.626400000000     0          
C11      C      0.000000000000     0.696700000000     0.956900000000     0          
C12      C      0.000000000000     0.757200000000     0.956700000000     0          
O5       O      0.000000000000     0.568300000000     0.760400000000     0          
O6       O      0.000000000000     0.581300000000     0.572800000000     0          
O7       O      0.000000000000     0.665200000000     0.897700000000     0          
O8       O      0.000000000000     0.781900000000     0.891800000000     0          
O1       O      0.050400000000     0.500000000000     0.894600000000     0          
O2       O      0.050400000000     0.425900000000     0.000000000000     0          
C1       C      0.406400000000     0.134900000000     0.371500000000     0          
C2       C      0.369700000000     0.177300000000     0.333800000000     0          
C3       C      0.370800000000     0.231600000000     0.361400000000     0          
H1       H      0.396600000000     0.241300000000     0.403500000000     0          
C4       C      0.335200000000     0.273800000000     0.330000000000     0          
C5       C      0.298900000000     0.257900000000     0.267100000000     0          
C6       C      0.298100000000     0.203400000000     0.240300000000     0          
H2       H      0.273000000000     0.193000000000     0.197700000000     0          
C7       C      0.332700000000     0.163600000000     0.273700000000     0          
H3       H      0.330800000000     0.126000000000     0.254700000000     0          
C8       C      0.332800000000     0.333300000000     0.368000000000     0          
H4       H      0.355000000000     0.359300000000     0.334500000000     0          
H5       H      0.293700000000     0.346100000000     0.369900000000     0          
H6       H      0.348200000000     0.332200000000     0.423500000000     0          
O3       O      0.444440000000     0.150120000000     0.419700000000     0          
O4       O      0.396680000000     0.084590000000     0.349900000000     0          
C1       C      0.865100000000     0.406400000000     0.871500000000     0          
C2       C      0.822700000000     0.369700000000     0.833800000000     0          
C3       C      0.768400000000     0.370800000000     0.861400000000     0          
H1       H      0.758700000000     0.396600000000     0.903500000000     0          
C4       C      0.726200000000     0.335200000000     0.830000000000     0          
C5       C      0.742100000000     0.298900000000     0.767100000000     0          
C6       C      0.796600000000     0.298100000000     0.740300000000     0          
H2       H      0.807000000000     0.273000000000     0.697700000000     0          
C7       C      0.836400000000     0.332700000000     0.773700000000     0          
H3       H      0.874000000000     0.330800000000     0.754700000000     0          
C8       C      0.666700000000     0.332800000000     0.868000000000     0          
H4       H      0.640700000000     0.355000000000     0.834500000000     0          
H5       H      0.653900000000     0.293700000000     0.869900000000     0          
H6       H      0.667800000000     0.348200000000     0.923500000000     0          
O3       O      0.849880000000     0.444440000000     0.919700000000     0          
O4       O      0.915410000000     0.396680000000     0.849900000000     0          
C1       C      0.593600000000     0.865100000000     0.371500000000     0          
C2       C      0.630300000000     0.822700000000     0.333800000000     0          
C3       C      0.629200000000     0.768400000000     0.361400000000     0          
H1       H      0.603400000000     0.758700000000     0.403500000000     0          
C4       C      0.664800000000     0.726200000000     0.330000000000     0          
C5       C      0.701100000000     0.742100000000     0.267100000000     0          
C6       C      0.701900000000     0.796600000000     0.240300000000     0          
H2       H      0.727000000000     0.807000000000     0.197700000000     0          
C7       C      0.667300000000     0.836400000000     0.273700000000     0          
H3       H      0.669200000000     0.874000000000     0.254700000000     0          
C8       C      0.667200000000     0.666700000000     0.368000000000     0          
H4       H      0.645000000000     0.640700000000     0.334500000000     0          
H5       H      0.706300000000     0.653900000000     0.369900000000     0          
H6       H      0.651800000000     0.667800000000     0.423500000000     0          
O3       O      0.555560000000     0.849880000000     0.419700000000     0          
O4       O      0.603320000000     0.915410000000     0.349900000000     0          
C1       C      0.134900000000     0.593600000000     0.871500000000     0          
C2       C      0.177300000000     0.630300000000     0.833800000000     0          
C3       C      0.231600000000     0.629200000000     0.861400000000     0          
H1       H      0.241300000000     0.603400000000     0.903500000000     0          
C4       C      0.273800000000     0.664800000000     0.830000000000     0          
C5       C      0.257900000000     0.701100000000     0.767100000000     0          
C6       C      0.203400000000     0.701900000000     0.740300000000     0          
H2       H      0.193000000000     0.727000000000     0.697700000000     0          
C7       C      0.163600000000     0.667300000000     0.773700000000     0          
H3       H      0.126000000000     0.669200000000     0.754700000000     0          
C8       C      0.333300000000     0.667200000000     0.868000000000     0          
H4       H      0.359300000000     0.645000000000     0.834500000000     0          
H5       H      0.346100000000     0.706300000000     0.869900000000     0          
H6       H      0.332200000000     0.651800000000     0.923500000000     0          
O3       O      0.150120000000     0.555560000000     0.919700000000     0          
O4       O      0.084590000000     0.603320000000     0.849900000000     0          
C1       C      0.406400000000     0.865100000000     0.628500000000     0          
C2       C      0.369700000000     0.822700000000     0.666200000000     0          
C3       C      0.370800000000     0.768400000000     0.638600000000     0          
H1       H      0.396600000000     0.758700000000     0.596500000000     0          
C4       C      0.335200000000     0.726200000000     0.670000000000     0          
C5       C      0.298900000000     0.742100000000     0.732900000000     0          
C6       C      0.298100000000     0.796600000000     0.759700000000     0          
H2       H      0.273000000000     0.807000000000     0.802300000000     0          
C7       C      0.332700000000     0.836400000000     0.726300000000     0          
H3       H      0.330800000000     0.874000000000     0.745300000000     0          
C8       C      0.332800000000     0.666700000000     0.632000000000     0          
H4       H      0.355000000000     0.640700000000     0.665500000000     0          
H5       H      0.293700000000     0.653900000000     0.630100000000     0          
H6       H      0.348200000000     0.667800000000     0.576500000000     0          
O3       O      0.444440000000     0.849880000000     0.580300000000     0          
O4       O      0.396680000000     0.915410000000     0.650100000000     0          
C1       C      0.134900000000     0.406400000000     0.128500000000     0          
C2       C      0.177300000000     0.369700000000     0.166200000000     0          
C3       C      0.231600000000     0.370800000000     0.138600000000     0          
H1       H      0.241300000000     0.396600000000     0.096500000000     0          
C4       C      0.273800000000     0.335200000000     0.170000000000     0          
C5       C      0.257900000000     0.298900000000     0.232900000000     0          
C6       C      0.203400000000     0.298100000000     0.259700000000     0          
H2       H      0.193000000000     0.273000000000     0.302300000000     0          
C7       C      0.163600000000     0.332700000000     0.226300000000     0          
H3       H      0.126000000000     0.330800000000     0.245300000000     0          
C8       C      0.333300000000     0.332800000000     0.132000000000     0          
H4       H      0.359300000000     0.355000000000     0.165500000000     0          
H5       H      0.346100000000     0.293700000000     0.130100000000     0          
H6       H      0.332200000000     0.348200000000     0.076500000000     0          
O3       O      0.150120000000     0.444440000000     0.080300000000     0          
O4       O      0.084590000000     0.396680000000     0.150100000000     0          
C1       C      0.593600000000     0.134900000000     0.628500000000     0          
C2       C      0.630300000000     0.177300000000     0.666200000000     0          
C3       C      0.629200000000     0.231600000000     0.638600000000     0          
H1       H      0.603400000000     0.241300000000     0.596500000000     0          
C4       C      0.664800000000     0.273800000000     0.670000000000     0          
C5       C      0.701100000000     0.257900000000     0.732900000000     0          
C6       C      0.701900000000     0.203400000000     0.759700000000     0          
H2       H      0.727000000000     0.193000000000     0.802300000000     0          
C7       C      0.667300000000     0.163600000000     0.726300000000     0          
H3       H      0.669200000000     0.126000000000     0.745300000000     0          
C8       C      0.667200000000     0.333300000000     0.632000000000     0          
H4       H      0.645000000000     0.359300000000     0.665500000000     0          
H5       H      0.706300000000     0.346100000000     0.630100000000     0          
H6       H      0.651800000000     0.332200000000     0.576500000000     0          
O3       O      0.555560000000     0.150120000000     0.580300000000     0          
O4       O      0.603320000000     0.084590000000     0.650100000000     0          
C1       C      0.865100000000     0.593600000000     0.128500000000     0          
C2       C      0.822700000000     0.630300000000     0.166200000000     0          
C3       C      0.768400000000     0.629200000000     0.138600000000     0          
H1       H      0.758700000000     0.603400000000     0.096500000000     0          
C4       C      0.726200000000     0.664800000000     0.170000000000     0          
C5       C      0.742100000000     0.701100000000     0.232900000000     0          
C6       C      0.796600000000     0.701900000000     0.259700000000     0          
H2       H      0.807000000000     0.727000000000     0.302300000000     0          
C7       C      0.836400000000     0.667300000000     0.226300000000     0          
H3       H      0.874000000000     0.669200000000     0.245300000000     0          
C8       C      0.666700000000     0.667200000000     0.132000000000     0          
H4       H      0.640700000000     0.645000000000     0.165500000000     0          
H5       H      0.653900000000     0.706300000000     0.130100000000     0          
H6       H      0.667800000000     0.651800000000     0.076500000000     0          
O3       O      0.849880000000     0.555560000000     0.080300000000     0          
O4       O      0.915410000000     0.603320000000     0.150100000000     0          


