data_SOLHOT

_audit_creation_method RASPA-1.0
_audit_creation_date 2020-4-3
_audit_author_name 'Rocio Bueno-Perez'

_cell_length_a    20.3921
_cell_length_b    20.3921
_cell_length_c    10.1779
_cell_angle_alpha 90
_cell_angle_beta  90
_cell_angle_gamma 90
_cell_volume      4232.35

_symmetry_cell_setting          triclinic
_symmetry_space_group_name_Hall 'P 1'
_symmetry_space_group_name_H-M  'P 1'
_symmetry_Int_Tables_number     1

_symmetry_equiv_pos_as_xyz 'x,y,z'

loop_
_atom_site_label
_atom_site_type_symbol
_atom_site_fract_x
_atom_site_fract_y
_atom_site_fract_z
_atom_site_charge
O1       O      0.079280000000     0.983880000000     0.625310000000     0          
O2       O      0.154240000000     0.101050000000     0.668140000000     0          
C3       C      0.253880000000     0.198560000000     0.665600000000     0          
H4       H      0.258760000000     0.156110000000     0.593390000000     0          
O5       O      0.579280000000     0.483880000000     0.125310000000     0          
O6       O      0.654240000000     0.601050000000     0.168140000000     0          
C7       C      0.753880000000     0.698560000000     0.165600000000     0          
H8       H      0.758760000000     0.656110000000     0.093390000000     0          
O9       O      0.920720000000     0.016120000000     0.625310000000     0          
O10      O      0.845760000000     0.898950000000     0.668140000000     0          
C11      C      0.746120000000     0.801440000000     0.665600000000     0          
H12      H      0.741240000000     0.843890000000     0.593390000000     0          
O13      O      0.420720000000     0.516120000000     0.125310000000     0          
O14      O      0.345760000000     0.398950000000     0.168140000000     0          
C15      C      0.246120000000     0.301440000000     0.165600000000     0          
H16      H      0.241240000000     0.343890000000     0.093390000000     0          
O17      O      0.016120000000     0.079280000000     0.625310000000     0          
O18      O      0.898950000000     0.154240000000     0.668140000000     0          
C19      C      0.801440000000     0.253880000000     0.665600000000     0          
H20      H      0.843890000000     0.258760000000     0.593390000000     0          
O21      O      0.516120000000     0.579280000000     0.125310000000     0          
O22      O      0.398950000000     0.654240000000     0.168140000000     0          
C23      C      0.301440000000     0.753880000000     0.165600000000     0          
H24      H      0.343890000000     0.758760000000     0.093390000000     0          
O25      O      0.983880000000     0.920720000000     0.625310000000     0          
O26      O      0.101050000000     0.845760000000     0.668140000000     0          
C27      C      0.198560000000     0.746120000000     0.665600000000     0          
H28      H      0.156110000000     0.741240000000     0.593390000000     0          
O29      O      0.483880000000     0.420720000000     0.125310000000     0          
O30      O      0.601050000000     0.345760000000     0.168140000000     0          
C31      C      0.698560000000     0.246120000000     0.165600000000     0          
H32      H      0.656110000000     0.241240000000     0.093390000000     0          
O33      O      0.920720000000     0.983880000000     0.874690000000     0          
O34      O      0.845760000000     0.101050000000     0.831860000000     0          
C35      C      0.746120000000     0.198560000000     0.834400000000     0          
H36      H      0.741240000000     0.156110000000     0.906610000000     0          
O37      O      0.420720000000     0.483880000000     0.374690000000     0          
O38      O      0.345760000000     0.601050000000     0.331860000000     0          
C39      C      0.246120000000     0.698560000000     0.334400000000     0          
H40      H      0.241240000000     0.656110000000     0.406610000000     0          
O41      O      0.079280000000     0.016120000000     0.874690000000     0          
O42      O      0.154240000000     0.898950000000     0.831860000000     0          
C43      C      0.253880000000     0.801440000000     0.834400000000     0          
H44      H      0.258760000000     0.843890000000     0.906610000000     0          
O45      O      0.579280000000     0.516120000000     0.374690000000     0          
O46      O      0.654240000000     0.398950000000     0.331860000000     0          
C47      C      0.753880000000     0.301440000000     0.334400000000     0          
H48      H      0.758760000000     0.343890000000     0.406610000000     0          
O49      O      0.983880000000     0.079280000000     0.874690000000     0          
O50      O      0.101050000000     0.154240000000     0.831860000000     0          
C51      C      0.198560000000     0.253880000000     0.834400000000     0          
H52      H      0.156110000000     0.258760000000     0.906610000000     0          
O53      O      0.483880000000     0.579280000000     0.374690000000     0          
O54      O      0.601050000000     0.654240000000     0.331860000000     0          
C55      C      0.698560000000     0.753880000000     0.334400000000     0          
H56      H      0.656110000000     0.758760000000     0.406610000000     0          
O57      O      0.016120000000     0.920720000000     0.874690000000     0          
O58      O      0.898950000000     0.845760000000     0.831860000000     0          
C59      C      0.801440000000     0.746120000000     0.834400000000     0          
H60      H      0.843890000000     0.741240000000     0.906610000000     0          
O61      O      0.516120000000     0.420720000000     0.374690000000     0          
O62      O      0.398950000000     0.345760000000     0.331860000000     0          
C63      C      0.301440000000     0.246120000000     0.334400000000     0          
H64      H      0.343890000000     0.241240000000     0.406610000000     0          
O65      O      0.920720000000     0.016120000000     0.374690000000     0          
O66      O      0.845760000000     0.898950000000     0.331860000000     0          
C67      C      0.746120000000     0.801440000000     0.334400000000     0          
H68      H      0.741240000000     0.843890000000     0.406610000000     0          
O69      O      0.420720000000     0.516120000000     0.874690000000     0          
O70      O      0.345760000000     0.398950000000     0.831860000000     0          
C71      C      0.246120000000     0.301440000000     0.834400000000     0          
H72      H      0.241240000000     0.343890000000     0.906610000000     0          
O73      O      0.079280000000     0.983880000000     0.374690000000     0          
O74      O      0.154240000000     0.101050000000     0.331860000000     0          
C75      C      0.253880000000     0.198560000000     0.334400000000     0          
H76      H      0.258760000000     0.156110000000     0.406610000000     0          
O77      O      0.579280000000     0.483880000000     0.874690000000     0          
O78      O      0.654240000000     0.601050000000     0.831860000000     0          
C79      C      0.753880000000     0.698560000000     0.834400000000     0          
H80      H      0.758760000000     0.656110000000     0.906610000000     0          
O81      O      0.983880000000     0.920720000000     0.374690000000     0          
O82      O      0.101050000000     0.845760000000     0.331860000000     0          
C83      C      0.198560000000     0.746120000000     0.334400000000     0          
H84      H      0.156110000000     0.741240000000     0.406610000000     0          
O85      O      0.483880000000     0.420720000000     0.874690000000     0          
O86      O      0.601050000000     0.345760000000     0.831860000000     0          
C87      C      0.698560000000     0.246120000000     0.834400000000     0          
H88      H      0.656110000000     0.241240000000     0.906610000000     0          
O89      O      0.016120000000     0.079280000000     0.374690000000     0          
O90      O      0.898950000000     0.154240000000     0.331860000000     0          
C91      C      0.801440000000     0.253880000000     0.334400000000     0          
H92      H      0.843890000000     0.258760000000     0.406610000000     0          
O93      O      0.516120000000     0.579280000000     0.874690000000     0          
O94      O      0.398950000000     0.654240000000     0.831860000000     0          
C95      C      0.301440000000     0.753880000000     0.834400000000     0          
H96      H      0.343890000000     0.758760000000     0.906610000000     0          
O97      O      0.079280000000     0.016120000000     0.125310000000     0          
O98      O      0.154240000000     0.898950000000     0.168140000000     0          
C99      C      0.253880000000     0.801440000000     0.165600000000     0          
H100     H      0.258760000000     0.843890000000     0.093390000000     0          
O101     O      0.579280000000     0.516120000000     0.625310000000     0          
O102     O      0.654240000000     0.398950000000     0.668140000000     0          
C103     C      0.753880000000     0.301440000000     0.665600000000     0          
H104     H      0.758760000000     0.343890000000     0.593390000000     0          
O105     O      0.920720000000     0.983880000000     0.125310000000     0          
O106     O      0.845760000000     0.101050000000     0.168140000000     0          
C107     C      0.746120000000     0.198560000000     0.165600000000     0          
H108     H      0.741240000000     0.156110000000     0.093390000000     0          
O109     O      0.420720000000     0.483880000000     0.625310000000     0          
O110     O      0.345760000000     0.601050000000     0.668140000000     0          
C111     C      0.246120000000     0.698560000000     0.665600000000     0          
H112     H      0.241240000000     0.656110000000     0.593390000000     0          
O113     O      0.016120000000     0.920720000000     0.125310000000     0          
O114     O      0.898950000000     0.845760000000     0.168140000000     0          
C115     C      0.801440000000     0.746120000000     0.165600000000     0          
H116     H      0.843890000000     0.741240000000     0.093390000000     0          
O117     O      0.516120000000     0.420720000000     0.625310000000     0          
O118     O      0.398950000000     0.345760000000     0.668140000000     0          
C119     C      0.301440000000     0.246120000000     0.665600000000     0          
H120     H      0.343890000000     0.241240000000     0.593390000000     0          
O121     O      0.983880000000     0.079280000000     0.125310000000     0          
O122     O      0.101050000000     0.154240000000     0.168140000000     0          
C123     C      0.198560000000     0.253880000000     0.165600000000     0          
H124     H      0.156110000000     0.258760000000     0.093390000000     0          
O125     O      0.483880000000     0.579280000000     0.625310000000     0          
O126     O      0.601050000000     0.654240000000     0.668140000000     0          
C127     C      0.698560000000     0.753880000000     0.665600000000     0          
H128     H      0.656110000000     0.758760000000     0.593390000000     0          
Zr129    Zr     0.000000000000     0.000000000000     0.750000000000     0          
Zr130    Zr     0.500000000000     0.500000000000     0.250000000000     0          
Zr131    Zr     0.000000000000     0.000000000000     0.250000000000     0          
Zr132    Zr     0.500000000000     0.500000000000     0.750000000000     0          
Zr133    Zr     0.101420000000     0.067350000000     0.500000000000     0          
O134     O      0.196110000000     0.015710000000     0.500000000000     0          
O135     O      0.095410000000     0.176270000000     0.500000000000     0          
C136     C      0.214480000000     0.954820000000     0.500000000000     0          
C137     C      0.286990000000     0.941620000000     0.500000000000     0          
Zr138    Zr     0.601420000000     0.567350000000     0.000000000000     0          
O139     O      0.696110000000     0.515710000000     0.000000000000     0          
O140     O      0.595410000000     0.676270000000     0.000000000000     0          
C141     C      0.714480000000     0.454820000000     0.000000000000     0          
C142     C      0.786990000000     0.441620000000     0.000000000000     0          
Zr143    Zr     0.898580000000     0.932650000000     0.500000000000     0          
O144     O      0.803890000000     0.984290000000     0.500000000000     0          
O145     O      0.904590000000     0.823730000000     0.500000000000     0          
C146     C      0.785520000000     0.045180000000     0.500000000000     0          
C147     C      0.713010000000     0.058380000000     0.500000000000     0          
Zr148    Zr     0.398580000000     0.432650000000     0.000000000000     0          
O149     O      0.303890000000     0.484290000000     0.000000000000     0          
O150     O      0.404590000000     0.323730000000     0.000000000000     0          
C151     C      0.285520000000     0.545180000000     0.000000000000     0          
C152     C      0.213010000000     0.558380000000     0.000000000000     0          
Zr153    Zr     0.932650000000     0.101420000000     0.500000000000     0          
O154     O      0.984290000000     0.196110000000     0.500000000000     0          
O155     O      0.823730000000     0.095410000000     0.500000000000     0          
C156     C      0.045180000000     0.214480000000     0.500000000000     0          
C157     C      0.058380000000     0.286990000000     0.500000000000     0          
Zr158    Zr     0.432650000000     0.601420000000     0.000000000000     0          
O159     O      0.484290000000     0.696110000000     0.000000000000     0          
O160     O      0.323730000000     0.595410000000     0.000000000000     0          
C161     C      0.545180000000     0.714480000000     0.000000000000     0          
C162     C      0.558380000000     0.786990000000     0.000000000000     0          
Zr163    Zr     0.067350000000     0.898580000000     0.500000000000     0          
O164     O      0.015710000000     0.803890000000     0.500000000000     0          
O165     O      0.176270000000     0.904590000000     0.500000000000     0          
C166     C      0.954820000000     0.785520000000     0.500000000000     0          
C167     C      0.941620000000     0.713010000000     0.500000000000     0          
Zr168    Zr     0.567350000000     0.398580000000     0.000000000000     0          
O169     O      0.515710000000     0.303890000000     0.000000000000     0          
O170     O      0.676270000000     0.404590000000     0.000000000000     0          
C171     C      0.454820000000     0.285520000000     0.000000000000     0          
C172     C      0.441620000000     0.213010000000     0.000000000000     0          
Zr173    Zr     0.898580000000     0.067350000000     0.000000000000     0          
O174     O      0.803890000000     0.015710000000     0.000000000000     0          
O175     O      0.904590000000     0.176270000000     0.000000000000     0          
C176     C      0.785520000000     0.954820000000     0.000000000000     0          
C177     C      0.713010000000     0.941620000000     0.000000000000     0          
Zr178    Zr     0.398580000000     0.567350000000     0.500000000000     0          
O179     O      0.303890000000     0.515710000000     0.500000000000     0          
O180     O      0.404590000000     0.676270000000     0.500000000000     0          
C181     C      0.285520000000     0.454820000000     0.500000000000     0          
C182     C      0.213010000000     0.441620000000     0.500000000000     0          
Zr183    Zr     0.101420000000     0.932650000000     0.000000000000     0          
O184     O      0.196110000000     0.984290000000     0.000000000000     0          
O185     O      0.095410000000     0.823730000000     0.000000000000     0          
C186     C      0.214480000000     0.045180000000     0.000000000000     0          
C187     C      0.286990000000     0.058380000000     0.000000000000     0          
Zr188    Zr     0.601420000000     0.432650000000     0.500000000000     0          
O189     O      0.696110000000     0.484290000000     0.500000000000     0          
O190     O      0.595410000000     0.323730000000     0.500000000000     0          
C191     C      0.714480000000     0.545180000000     0.500000000000     0          
C192     C      0.786990000000     0.558380000000     0.500000000000     0          
Zr193    Zr     0.067350000000     0.101420000000     0.000000000000     0          
O194     O      0.015710000000     0.196110000000     0.000000000000     0          
O195     O      0.176270000000     0.095410000000     0.000000000000     0          
C196     C      0.954820000000     0.214480000000     0.000000000000     0          
C197     C      0.941620000000     0.286990000000     0.000000000000     0          
Zr198    Zr     0.567350000000     0.601420000000     0.500000000000     0          
O199     O      0.515710000000     0.696110000000     0.500000000000     0          
O200     O      0.676270000000     0.595410000000     0.500000000000     0          
C201     C      0.454820000000     0.714480000000     0.500000000000     0          
C202     C      0.441620000000     0.786990000000     0.500000000000     0          
Zr203    Zr     0.932650000000     0.898580000000     0.000000000000     0          
O204     O      0.984290000000     0.803890000000     0.000000000000     0          
O205     O      0.823730000000     0.904590000000     0.000000000000     0          
C206     C      0.045180000000     0.785520000000     0.000000000000     0          
C207     C      0.058380000000     0.713010000000     0.000000000000     0          
Zr208    Zr     0.432650000000     0.398580000000     0.500000000000     0          
O209     O      0.484290000000     0.303890000000     0.500000000000     0          
O210     O      0.323730000000     0.404590000000     0.500000000000     0          
C211     C      0.545180000000     0.285520000000     0.500000000000     0          
C212     C      0.558380000000     0.213010000000     0.500000000000     0          
C213     C      0.148390000000     0.148390000000     0.750000000000     0          
C214     C      0.201190000000     0.201190000000     0.750000000000     0          
C215     C      0.648390000000     0.648390000000     0.250000000000     0          
C216     C      0.701190000000     0.701190000000     0.250000000000     0          
C217     C      0.851610000000     0.851610000000     0.750000000000     0          
C218     C      0.798810000000     0.798810000000     0.750000000000     0          
C219     C      0.351610000000     0.351610000000     0.250000000000     0          
C220     C      0.298810000000     0.298810000000     0.250000000000     0          
C221     C      0.851610000000     0.148390000000     0.750000000000     0          
C222     C      0.798810000000     0.201190000000     0.750000000000     0          
C223     C      0.351610000000     0.648390000000     0.250000000000     0          
C224     C      0.298810000000     0.701190000000     0.250000000000     0          
C225     C      0.148390000000     0.851610000000     0.750000000000     0          
C226     C      0.201190000000     0.798810000000     0.750000000000     0          
C227     C      0.648390000000     0.351610000000     0.250000000000     0          
C228     C      0.701190000000     0.298810000000     0.250000000000     0          
C229     C      0.851610000000     0.851610000000     0.250000000000     0          
C230     C      0.798810000000     0.798810000000     0.250000000000     0          
C231     C      0.351610000000     0.351610000000     0.750000000000     0          
C232     C      0.298810000000     0.298810000000     0.750000000000     0          
C233     C      0.148390000000     0.148390000000     0.250000000000     0          
C234     C      0.201190000000     0.201190000000     0.250000000000     0          
C235     C      0.648390000000     0.648390000000     0.750000000000     0          
C236     C      0.701190000000     0.701190000000     0.750000000000     0          
C237     C      0.148390000000     0.851610000000     0.250000000000     0          
C238     C      0.201190000000     0.798810000000     0.250000000000     0          
C239     C      0.648390000000     0.351610000000     0.750000000000     0          
C240     C      0.701190000000     0.298810000000     0.750000000000     0          
C241     C      0.851610000000     0.148390000000     0.250000000000     0          
C242     C      0.798810000000     0.201190000000     0.250000000000     0          
C243     C      0.351610000000     0.648390000000     0.750000000000     0          
C244     C      0.298810000000     0.701190000000     0.750000000000     0          
H245     H      0.307690000000     0.951290000000     0.397780000000     0          
H246     H      0.296230000000     0.888310000000     0.528160000000     0          
H247     H      0.312050000000     0.975250000000     0.574060000000     0          
H248     H      0.807690000000     0.451290000000     0.897780000000     0          
H249     H      0.796230000000     0.388310000000     0.028160000000     0          
H250     H      0.812050000000     0.475250000000     0.074060000000     0          
H251     H      0.685580000000     0.011740000000     0.528160000000     0          
H252     H      0.697050000000     0.074730000000     0.397780000000     0          
H253     H      0.701410000000     0.098680000000     0.574060000000     0          
H254     H      0.185580000000     0.511740000000     0.028160000000     0          
H255     H      0.197050000000     0.574730000000     0.897780000000     0          
H256     H      0.201410000000     0.598680000000     0.074060000000     0          
H257     H      0.079320000000     0.302120000000     0.400670000000     0          
H258     H      0.095160000000     0.299240000000     0.580710000000     0          
H259     H      0.010680000000     0.314620000000     0.518620000000     0          
H260     H      0.579320000000     0.802120000000     0.900670000000     0          
H261     H      0.595160000000     0.799240000000     0.080710000000     0          
H262     H      0.510680000000     0.814620000000     0.018620000000     0          
H263     H      0.971720000000     0.688590000000     0.580710000000     0          
H264     H      0.955890000000     0.691470000000     0.400670000000     0          
H265     H      0.887240000000     0.703970000000     0.518620000000     0          
H266     H      0.471720000000     0.188590000000     0.080710000000     0          
H267     H      0.455890000000     0.191470000000     0.900670000000     0          
H268     H      0.387240000000     0.203970000000     0.018620000000     0          
H269     H      0.703770000000     0.888310000000     0.028160000000     0          
H270     H      0.692310000000     0.951290000000     0.897780000000     0          
H271     H      0.687950000000     0.975250000000     0.074060000000     0          
H272     H      0.203770000000     0.388310000000     0.528160000000     0          
H273     H      0.192310000000     0.451290000000     0.397780000000     0          
H274     H      0.187950000000     0.475250000000     0.574060000000     0          
H275     H      0.302950000000     0.074730000000     0.897780000000     0          
H276     H      0.314420000000     0.011740000000     0.028160000000     0          
H277     H      0.298590000000     0.098680000000     0.074060000000     0          
H278     H      0.802950000000     0.574730000000     0.397780000000     0          
H279     H      0.814420000000     0.511740000000     0.528160000000     0          
H280     H      0.798590000000     0.598680000000     0.574060000000     0          
H281     H      0.904840000000     0.299240000000     0.080710000000     0          
H282     H      0.920680000000     0.302120000000     0.900670000000     0          
H283     H      0.989320000000     0.314620000000     0.018620000000     0          
H284     H      0.404840000000     0.799240000000     0.580710000000     0          
H285     H      0.420680000000     0.802120000000     0.400670000000     0          
H286     H      0.489320000000     0.814620000000     0.518620000000     0          
H287     H      0.044110000000     0.691470000000     0.900670000000     0          
H288     H      0.028280000000     0.688590000000     0.080710000000     0          
H289     H      0.112760000000     0.703970000000     0.018620000000     0          
H290     H      0.544110000000     0.191470000000     0.400670000000     0          
H291     H      0.528280000000     0.188590000000     0.580710000000     0          
H292     H      0.612760000000     0.203970000000     0.518620000000     0          


