data_SOLHUZ

_audit_creation_method RASPA-1.0
_audit_creation_date 2020-4-3
_audit_author_name 'Rocio Bueno-Perez'

_cell_length_a    26.5631
_cell_length_b    26.5631
_cell_length_c    10.1773
_cell_angle_alpha 90
_cell_angle_beta  90
_cell_angle_gamma 90
_cell_volume      7181.09

_symmetry_cell_setting          triclinic
_symmetry_space_group_name_Hall 'P 1'
_symmetry_space_group_name_H-M  'P 1'
_symmetry_Int_Tables_number     1

_symmetry_equiv_pos_as_xyz 'x,y,z'

loop_
_atom_site_label
_atom_site_type_symbol
_atom_site_fract_x
_atom_site_fract_y
_atom_site_fract_z
_atom_site_charge
O1       O      0.057100000000     0.987000000000     0.624600000000     0          
O2       O      0.110400000000     0.076840000000     0.665500000000     0          
C3       C      0.202110000000     0.144850000000     0.698600000000     0          
C4       C      0.238200000000     0.181530000000     0.699000000000     0          
H5       H      0.210920000000     0.106140000000     0.656050000000     0          
H6       H      0.277090000000     0.173440000000     0.656600000000     0          
O7       O      0.557100000000     0.487000000000     0.124600000000     0          
O8       O      0.610400000000     0.576840000000     0.165500000000     0          
C9       C      0.702110000000     0.644850000000     0.198600000000     0          
C10      C      0.738200000000     0.681530000000     0.199000000000     0          
H11      H      0.710920000000     0.606140000000     0.156050000000     0          
H12      H      0.777090000000     0.673440000000     0.156600000000     0          
O13      O      0.942900000000     0.013000000000     0.624600000000     0          
O14      O      0.889600000000     0.923160000000     0.665500000000     0          
C15      C      0.797890000000     0.855150000000     0.698600000000     0          
C16      C      0.761800000000     0.818470000000     0.699000000000     0          
H17      H      0.789080000000     0.893860000000     0.656050000000     0          
H18      H      0.722910000000     0.826560000000     0.656600000000     0          
O19      O      0.442900000000     0.513000000000     0.124600000000     0          
O20      O      0.389600000000     0.423160000000     0.165500000000     0          
C21      C      0.297890000000     0.355150000000     0.198600000000     0          
C22      C      0.261800000000     0.318470000000     0.199000000000     0          
H23      H      0.289080000000     0.393860000000     0.156050000000     0          
H24      H      0.222910000000     0.326560000000     0.156600000000     0          
O25      O      0.013000000000     0.057100000000     0.624600000000     0          
O26      O      0.923160000000     0.110400000000     0.665500000000     0          
C27      C      0.855150000000     0.202110000000     0.698600000000     0          
C28      C      0.818470000000     0.238200000000     0.699000000000     0          
H29      H      0.893860000000     0.210920000000     0.656050000000     0          
H30      H      0.826560000000     0.277090000000     0.656600000000     0          
O31      O      0.513000000000     0.557100000000     0.124600000000     0          
O32      O      0.423160000000     0.610400000000     0.165500000000     0          
C33      C      0.355150000000     0.702110000000     0.198600000000     0          
C34      C      0.318470000000     0.738200000000     0.199000000000     0          
H35      H      0.393860000000     0.710920000000     0.156050000000     0          
H36      H      0.326560000000     0.777090000000     0.156600000000     0          
O37      O      0.987000000000     0.942900000000     0.624600000000     0          
O38      O      0.076840000000     0.889600000000     0.665500000000     0          
C39      C      0.144850000000     0.797890000000     0.698600000000     0          
C40      C      0.181530000000     0.761800000000     0.699000000000     0          
H41      H      0.106140000000     0.789080000000     0.656050000000     0          
H42      H      0.173440000000     0.722910000000     0.656600000000     0          
O43      O      0.487000000000     0.442900000000     0.124600000000     0          
O44      O      0.576840000000     0.389600000000     0.165500000000     0          
C45      C      0.644850000000     0.297890000000     0.198600000000     0          
C46      C      0.681530000000     0.261800000000     0.199000000000     0          
H47      H      0.606140000000     0.289080000000     0.156050000000     0          
H48      H      0.673440000000     0.222910000000     0.156600000000     0          
O49      O      0.942900000000     0.987000000000     0.875400000000     0          
O50      O      0.889600000000     0.076840000000     0.834500000000     0          
C51      C      0.797890000000     0.144850000000     0.801400000000     0          
C52      C      0.761800000000     0.181530000000     0.801000000000     0          
H53      H      0.789080000000     0.106140000000     0.843950000000     0          
H54      H      0.722910000000     0.173440000000     0.843400000000     0          
O55      O      0.442900000000     0.487000000000     0.375400000000     0          
O56      O      0.389600000000     0.576840000000     0.334500000000     0          
C57      C      0.297890000000     0.644850000000     0.301400000000     0          
C58      C      0.261800000000     0.681530000000     0.301000000000     0          
H59      H      0.289080000000     0.606140000000     0.343950000000     0          
H60      H      0.222910000000     0.673440000000     0.343400000000     0          
O61      O      0.057100000000     0.013000000000     0.875400000000     0          
O62      O      0.110400000000     0.923160000000     0.834500000000     0          
C63      C      0.202110000000     0.855150000000     0.801400000000     0          
C64      C      0.238200000000     0.818470000000     0.801000000000     0          
H65      H      0.210920000000     0.893860000000     0.843950000000     0          
H66      H      0.277090000000     0.826560000000     0.843400000000     0          
O67      O      0.557100000000     0.513000000000     0.375400000000     0          
O68      O      0.610400000000     0.423160000000     0.334500000000     0          
C69      C      0.702110000000     0.355150000000     0.301400000000     0          
C70      C      0.738200000000     0.318470000000     0.301000000000     0          
H71      H      0.710920000000     0.393860000000     0.343950000000     0          
H72      H      0.777090000000     0.326560000000     0.343400000000     0          
O73      O      0.987000000000     0.057100000000     0.875400000000     0          
O74      O      0.076840000000     0.110400000000     0.834500000000     0          
C75      C      0.144850000000     0.202110000000     0.801400000000     0          
C76      C      0.181530000000     0.238200000000     0.801000000000     0          
H77      H      0.106140000000     0.210920000000     0.843950000000     0          
H78      H      0.173440000000     0.277090000000     0.843400000000     0          
O79      O      0.487000000000     0.557100000000     0.375400000000     0          
O80      O      0.576840000000     0.610400000000     0.334500000000     0          
C81      C      0.644850000000     0.702110000000     0.301400000000     0          
C82      C      0.681530000000     0.738200000000     0.301000000000     0          
H83      H      0.606140000000     0.710920000000     0.343950000000     0          
H84      H      0.673440000000     0.777090000000     0.343400000000     0          
O85      O      0.013000000000     0.942900000000     0.875400000000     0          
O86      O      0.923160000000     0.889600000000     0.834500000000     0          
C87      C      0.855150000000     0.797890000000     0.801400000000     0          
C88      C      0.818470000000     0.761800000000     0.801000000000     0          
H89      H      0.893860000000     0.789080000000     0.843950000000     0          
H90      H      0.826560000000     0.722910000000     0.843400000000     0          
O91      O      0.513000000000     0.442900000000     0.375400000000     0          
O92      O      0.423160000000     0.389600000000     0.334500000000     0          
C93      C      0.355150000000     0.297890000000     0.301400000000     0          
C94      C      0.318470000000     0.261800000000     0.301000000000     0          
H95      H      0.393860000000     0.289080000000     0.343950000000     0          
H96      H      0.326560000000     0.222910000000     0.343400000000     0          
O97      O      0.942900000000     0.013000000000     0.375400000000     0          
O98      O      0.889600000000     0.923160000000     0.334500000000     0          
C99      C      0.797890000000     0.855150000000     0.301400000000     0          
C100     C      0.761800000000     0.818470000000     0.301000000000     0          
H101     H      0.789080000000     0.893860000000     0.343950000000     0          
H102     H      0.722910000000     0.826560000000     0.343400000000     0          
O103     O      0.442900000000     0.513000000000     0.875400000000     0          
O104     O      0.389600000000     0.423160000000     0.834500000000     0          
C105     C      0.297890000000     0.355150000000     0.801400000000     0          
C106     C      0.261800000000     0.318470000000     0.801000000000     0          
H107     H      0.289080000000     0.393860000000     0.843950000000     0          
H108     H      0.222910000000     0.326560000000     0.843400000000     0          
O109     O      0.057100000000     0.987000000000     0.375400000000     0          
O110     O      0.110400000000     0.076840000000     0.334500000000     0          
C111     C      0.202110000000     0.144850000000     0.301400000000     0          
C112     C      0.238200000000     0.181530000000     0.301000000000     0          
H113     H      0.210920000000     0.106140000000     0.343950000000     0          
H114     H      0.277090000000     0.173440000000     0.343400000000     0          
O115     O      0.557100000000     0.487000000000     0.875400000000     0          
O116     O      0.610400000000     0.576840000000     0.834500000000     0          
C117     C      0.702110000000     0.644850000000     0.801400000000     0          
C118     C      0.738200000000     0.681530000000     0.801000000000     0          
H119     H      0.710920000000     0.606140000000     0.843950000000     0          
H120     H      0.777090000000     0.673440000000     0.843400000000     0          
O121     O      0.987000000000     0.942900000000     0.375400000000     0          
O122     O      0.076840000000     0.889600000000     0.334500000000     0          
C123     C      0.144850000000     0.797890000000     0.301400000000     0          
C124     C      0.181530000000     0.761800000000     0.301000000000     0          
H125     H      0.106140000000     0.789080000000     0.343950000000     0          
H126     H      0.173440000000     0.722910000000     0.343400000000     0          
O127     O      0.487000000000     0.442900000000     0.875400000000     0          
O128     O      0.576840000000     0.389600000000     0.834500000000     0          
C129     C      0.644850000000     0.297890000000     0.801400000000     0          
C130     C      0.681530000000     0.261800000000     0.801000000000     0          
H131     H      0.606140000000     0.289080000000     0.843950000000     0          
H132     H      0.673440000000     0.222910000000     0.843400000000     0          
O133     O      0.013000000000     0.057100000000     0.375400000000     0          
O134     O      0.923160000000     0.110400000000     0.334500000000     0          
C135     C      0.855150000000     0.202110000000     0.301400000000     0          
C136     C      0.818470000000     0.238200000000     0.301000000000     0          
H137     H      0.893860000000     0.210920000000     0.343950000000     0          
H138     H      0.826560000000     0.277090000000     0.343400000000     0          
O139     O      0.513000000000     0.557100000000     0.875400000000     0          
O140     O      0.423160000000     0.610400000000     0.834500000000     0          
C141     C      0.355150000000     0.702110000000     0.801400000000     0          
C142     C      0.318470000000     0.738200000000     0.801000000000     0          
H143     H      0.393860000000     0.710920000000     0.843950000000     0          
H144     H      0.326560000000     0.777090000000     0.843400000000     0          
O145     O      0.057100000000     0.013000000000     0.124600000000     0          
O146     O      0.110400000000     0.923160000000     0.165500000000     0          
C147     C      0.202110000000     0.855150000000     0.198600000000     0          
C148     C      0.238200000000     0.818470000000     0.199000000000     0          
H149     H      0.210920000000     0.893860000000     0.156050000000     0          
H150     H      0.277090000000     0.826560000000     0.156600000000     0          
O151     O      0.557100000000     0.513000000000     0.624600000000     0          
O152     O      0.610400000000     0.423160000000     0.665500000000     0          
C153     C      0.702110000000     0.355150000000     0.698600000000     0          
C154     C      0.738200000000     0.318470000000     0.699000000000     0          
H155     H      0.710920000000     0.393860000000     0.656050000000     0          
H156     H      0.777090000000     0.326560000000     0.656600000000     0          
O157     O      0.942900000000     0.987000000000     0.124600000000     0          
O158     O      0.889600000000     0.076840000000     0.165500000000     0          
C159     C      0.797890000000     0.144850000000     0.198600000000     0          
C160     C      0.761800000000     0.181530000000     0.199000000000     0          
H161     H      0.789080000000     0.106140000000     0.156050000000     0          
H162     H      0.722910000000     0.173440000000     0.156600000000     0          
O163     O      0.442900000000     0.487000000000     0.624600000000     0          
O164     O      0.389600000000     0.576840000000     0.665500000000     0          
C165     C      0.297890000000     0.644850000000     0.698600000000     0          
C166     C      0.261800000000     0.681530000000     0.699000000000     0          
H167     H      0.289080000000     0.606140000000     0.656050000000     0          
H168     H      0.222910000000     0.673440000000     0.656600000000     0          
O169     O      0.013000000000     0.942900000000     0.124600000000     0          
O170     O      0.923160000000     0.889600000000     0.165500000000     0          
C171     C      0.855150000000     0.797890000000     0.198600000000     0          
C172     C      0.818470000000     0.761800000000     0.199000000000     0          
H173     H      0.893860000000     0.789080000000     0.156050000000     0          
H174     H      0.826560000000     0.722910000000     0.156600000000     0          
O175     O      0.513000000000     0.442900000000     0.624600000000     0          
O176     O      0.423160000000     0.389600000000     0.665500000000     0          
C177     C      0.355150000000     0.297890000000     0.698600000000     0          
C178     C      0.318470000000     0.261800000000     0.699000000000     0          
H179     H      0.393860000000     0.289080000000     0.656050000000     0          
H180     H      0.326560000000     0.222910000000     0.656600000000     0          
O181     O      0.987000000000     0.057100000000     0.124600000000     0          
O182     O      0.076840000000     0.110400000000     0.165500000000     0          
C183     C      0.144850000000     0.202110000000     0.198600000000     0          
C184     C      0.181530000000     0.238200000000     0.199000000000     0          
H185     H      0.106140000000     0.210920000000     0.156050000000     0          
H186     H      0.173440000000     0.277090000000     0.156600000000     0          
O187     O      0.487000000000     0.557100000000     0.624600000000     0          
O188     O      0.576840000000     0.610400000000     0.665500000000     0          
C189     C      0.644850000000     0.702110000000     0.698600000000     0          
C190     C      0.681530000000     0.738200000000     0.699000000000     0          
H191     H      0.606140000000     0.710920000000     0.656050000000     0          
H192     H      0.673440000000     0.777090000000     0.656600000000     0          
Zr193    Zr     0.000000000000     0.000000000000     0.750000000000     0          
Zr194    Zr     0.500000000000     0.500000000000     0.250000000000     0          
Zr195    Zr     0.000000000000     0.000000000000     0.250000000000     0          
Zr196    Zr     0.500000000000     0.500000000000     0.750000000000     0          
Zr197    Zr     0.076660000000     0.050840000000     0.500000000000     0          
O198     O      0.144600000000     0.016400000000     0.500000000000     0          
O199     O      0.126190000000     0.933090000000     0.500000000000     0          
C200     C      0.155400000000     0.970600000000     0.500000000000     0          
C201     C      0.211600000000     0.956800000000     0.500000000000     0          
Zr202    Zr     0.576660000000     0.550840000000     0.000000000000     0          
O203     O      0.644600000000     0.516400000000     0.000000000000     0          
O204     O      0.626190000000     0.433090000000     0.000000000000     0          
C205     C      0.655400000000     0.470600000000     0.000000000000     0          
C206     C      0.711600000000     0.456800000000     0.000000000000     0          
Zr207    Zr     0.923340000000     0.949160000000     0.500000000000     0          
O208     O      0.855400000000     0.983600000000     0.500000000000     0          
O209     O      0.873810000000     0.066910000000     0.500000000000     0          
C210     C      0.844600000000     0.029400000000     0.500000000000     0          
C211     C      0.788400000000     0.043200000000     0.500000000000     0          
Zr212    Zr     0.423340000000     0.449160000000     0.000000000000     0          
O213     O      0.355400000000     0.483600000000     0.000000000000     0          
O214     O      0.373810000000     0.566910000000     0.000000000000     0          
C215     C      0.344600000000     0.529400000000     0.000000000000     0          
C216     C      0.288400000000     0.543200000000     0.000000000000     0          
Zr217    Zr     0.949160000000     0.076660000000     0.500000000000     0          
O218     O      0.983600000000     0.144600000000     0.500000000000     0          
O219     O      0.066910000000     0.126190000000     0.500000000000     0          
C220     C      0.029400000000     0.155400000000     0.500000000000     0          
C221     C      0.043200000000     0.211600000000     0.500000000000     0          
Zr222    Zr     0.449160000000     0.576660000000     0.000000000000     0          
O223     O      0.483600000000     0.644600000000     0.000000000000     0          
O224     O      0.566910000000     0.626190000000     0.000000000000     0          
C225     C      0.529400000000     0.655400000000     0.000000000000     0          
C226     C      0.543200000000     0.711600000000     0.000000000000     0          
Zr227    Zr     0.050840000000     0.923340000000     0.500000000000     0          
O228     O      0.016400000000     0.855400000000     0.500000000000     0          
O229     O      0.933090000000     0.873810000000     0.500000000000     0          
C230     C      0.970600000000     0.844600000000     0.500000000000     0          
C231     C      0.956800000000     0.788400000000     0.500000000000     0          
Zr232    Zr     0.550840000000     0.423340000000     0.000000000000     0          
O233     O      0.516400000000     0.355400000000     0.000000000000     0          
O234     O      0.433090000000     0.373810000000     0.000000000000     0          
C235     C      0.470600000000     0.344600000000     0.000000000000     0          
C236     C      0.456800000000     0.288400000000     0.000000000000     0          
Zr237    Zr     0.923340000000     0.050840000000     0.000000000000     0          
O238     O      0.855400000000     0.016400000000     0.000000000000     0          
O239     O      0.873810000000     0.933090000000     0.000000000000     0          
C240     C      0.844600000000     0.970600000000     0.000000000000     0          
C241     C      0.788400000000     0.956800000000     0.000000000000     0          
Zr242    Zr     0.423340000000     0.550840000000     0.500000000000     0          
O243     O      0.355400000000     0.516400000000     0.500000000000     0          
O244     O      0.373810000000     0.433090000000     0.500000000000     0          
C245     C      0.344600000000     0.470600000000     0.500000000000     0          
C246     C      0.288400000000     0.456800000000     0.500000000000     0          
Zr247    Zr     0.076660000000     0.949160000000     0.000000000000     0          
O248     O      0.144600000000     0.983600000000     0.000000000000     0          
O249     O      0.126190000000     0.066910000000     0.000000000000     0          
C250     C      0.155400000000     0.029400000000     0.000000000000     0          
C251     C      0.211600000000     0.043200000000     0.000000000000     0          
Zr252    Zr     0.576660000000     0.449160000000     0.500000000000     0          
O253     O      0.644600000000     0.483600000000     0.500000000000     0          
O254     O      0.626190000000     0.566910000000     0.500000000000     0          
C255     C      0.655400000000     0.529400000000     0.500000000000     0          
C256     C      0.711600000000     0.543200000000     0.500000000000     0          
Zr257    Zr     0.050840000000     0.076660000000     0.000000000000     0          
O258     O      0.016400000000     0.144600000000     0.000000000000     0          
O259     O      0.933090000000     0.126190000000     0.000000000000     0          
C260     C      0.970600000000     0.155400000000     0.000000000000     0          
C261     C      0.956800000000     0.211600000000     0.000000000000     0          
Zr262    Zr     0.550840000000     0.576660000000     0.500000000000     0          
O263     O      0.516400000000     0.644600000000     0.500000000000     0          
O264     O      0.433090000000     0.626190000000     0.500000000000     0          
C265     C      0.470600000000     0.655400000000     0.500000000000     0          
C266     C      0.456800000000     0.711600000000     0.500000000000     0          
Zr267    Zr     0.949160000000     0.923340000000     0.000000000000     0          
O268     O      0.983600000000     0.855400000000     0.000000000000     0          
O269     O      0.066910000000     0.873810000000     0.000000000000     0          
C270     C      0.029400000000     0.844600000000     0.000000000000     0          
C271     C      0.043200000000     0.788400000000     0.000000000000     0          
Zr272    Zr     0.449160000000     0.423340000000     0.500000000000     0          
O273     O      0.483600000000     0.355400000000     0.500000000000     0          
O274     O      0.566910000000     0.373810000000     0.500000000000     0          
C275     C      0.529400000000     0.344600000000     0.500000000000     0          
C276     C      0.543200000000     0.288400000000     0.500000000000     0          
C277     C      0.113080000000     0.113080000000     0.750000000000     0          
C278     C      0.154550000000     0.154550000000     0.750000000000     0          
C279     C      0.229280000000     0.229280000000     0.750000000000     0          
C280     C      0.613080000000     0.613080000000     0.250000000000     0          
C281     C      0.654550000000     0.654550000000     0.250000000000     0          
C282     C      0.729280000000     0.729280000000     0.250000000000     0          
C283     C      0.886920000000     0.886920000000     0.750000000000     0          
C284     C      0.845450000000     0.845450000000     0.750000000000     0          
C285     C      0.770720000000     0.770720000000     0.750000000000     0          
C286     C      0.386920000000     0.386920000000     0.250000000000     0          
C287     C      0.345450000000     0.345450000000     0.250000000000     0          
C288     C      0.270720000000     0.270720000000     0.250000000000     0          
C289     C      0.886920000000     0.113080000000     0.750000000000     0          
C290     C      0.845450000000     0.154550000000     0.750000000000     0          
C291     C      0.770720000000     0.229280000000     0.750000000000     0          
C292     C      0.386920000000     0.613080000000     0.250000000000     0          
C293     C      0.345450000000     0.654550000000     0.250000000000     0          
C294     C      0.270720000000     0.729280000000     0.250000000000     0          
C295     C      0.113080000000     0.886920000000     0.750000000000     0          
C296     C      0.154550000000     0.845450000000     0.750000000000     0          
C297     C      0.229280000000     0.770720000000     0.750000000000     0          
C298     C      0.613080000000     0.386920000000     0.250000000000     0          
C299     C      0.654550000000     0.345450000000     0.250000000000     0          
C300     C      0.729280000000     0.270720000000     0.250000000000     0          
C301     C      0.886920000000     0.886920000000     0.250000000000     0          
C302     C      0.845450000000     0.845450000000     0.250000000000     0          
C303     C      0.770720000000     0.770720000000     0.250000000000     0          
C304     C      0.386920000000     0.386920000000     0.750000000000     0          
C305     C      0.345450000000     0.345450000000     0.750000000000     0          
C306     C      0.270720000000     0.270720000000     0.750000000000     0          
C307     C      0.113080000000     0.113080000000     0.250000000000     0          
C308     C      0.154550000000     0.154550000000     0.250000000000     0          
C309     C      0.229280000000     0.229280000000     0.250000000000     0          
C310     C      0.613080000000     0.613080000000     0.750000000000     0          
C311     C      0.654550000000     0.654550000000     0.750000000000     0          
C312     C      0.729280000000     0.729280000000     0.750000000000     0          
C313     C      0.113080000000     0.886920000000     0.250000000000     0          
C314     C      0.154550000000     0.845450000000     0.250000000000     0          
C315     C      0.229280000000     0.770720000000     0.250000000000     0          
C316     C      0.613080000000     0.386920000000     0.750000000000     0          
C317     C      0.654550000000     0.345450000000     0.750000000000     0          
C318     C      0.729280000000     0.270720000000     0.750000000000     0          
C319     C      0.886920000000     0.113080000000     0.250000000000     0          
C320     C      0.845450000000     0.154550000000     0.250000000000     0          
C321     C      0.770720000000     0.229280000000     0.250000000000     0          
C322     C      0.386920000000     0.613080000000     0.750000000000     0          
C323     C      0.345450000000     0.654550000000     0.750000000000     0          
C324     C      0.270720000000     0.729280000000     0.750000000000     0          
H325     H      0.155400000000     0.970600000000     0.387990000000     0          
H326     H      0.227850000000     0.963000000000     0.397600000000     0          
H327     H      0.216210000000     0.915590000000     0.528820000000     0          
H328     H      0.232410000000     0.981580000000     0.573580000000     0          
H329     H      0.655400000000     0.470600000000     0.887990000000     0          
H330     H      0.727850000000     0.463000000000     0.897600000000     0          
H331     H      0.716210000000     0.415590000000     0.028820000000     0          
H332     H      0.732410000000     0.481580000000     0.073580000000     0          
H333     H      0.844600000000     0.029400000000     0.387990000000     0          
H334     H      0.765220000000     0.008810000000     0.528820000000     0          
H335     H      0.776870000000     0.056230000000     0.397600000000     0          
H336     H      0.781430000000     0.074800000000     0.573580000000     0          
H337     H      0.344600000000     0.529400000000     0.887990000000     0          
H338     H      0.265220000000     0.508810000000     0.028820000000     0          
H339     H      0.276870000000     0.556230000000     0.897600000000     0          
H340     H      0.281430000000     0.574800000000     0.073580000000     0          
H341     H      0.029400000000     0.155400000000     0.387990000000     0          
H342     H      0.057830000000     0.222740000000     0.398790000000     0          
H343     H      0.073620000000     0.218860000000     0.576720000000     0          
H344     H      0.008390000000     0.234880000000     0.524500000000     0          
H345     H      0.529400000000     0.655400000000     0.887990000000     0          
H346     H      0.557830000000     0.722740000000     0.898790000000     0          
H347     H      0.573620000000     0.718860000000     0.076720000000     0          
H348     H      0.508390000000     0.734880000000     0.024500000000     0          
H349     H      0.970600000000     0.844600000000     0.387990000000     0          
H350     H      0.980390000000     0.767880000000     0.576720000000     0          
H351     H      0.964610000000     0.771750000000     0.398790000000     0          
H352     H      0.915170000000     0.783890000000     0.524500000000     0          
H353     H      0.470600000000     0.344600000000     0.887990000000     0          
H354     H      0.480390000000     0.267880000000     0.076720000000     0          
H355     H      0.464610000000     0.271750000000     0.898790000000     0          
H356     H      0.415170000000     0.283890000000     0.024500000000     0          
H357     H      0.844600000000     0.970600000000     0.112010000000     0          
H358     H      0.783790000000     0.915590000000     0.028820000000     0          
H359     H      0.772150000000     0.963000000000     0.897600000000     0          
H360     H      0.767590000000     0.981580000000     0.073580000000     0          
H361     H      0.344600000000     0.470600000000     0.612010000000     0          
H362     H      0.283790000000     0.415590000000     0.528820000000     0          
H363     H      0.272150000000     0.463000000000     0.397600000000     0          
H364     H      0.267590000000     0.481580000000     0.573580000000     0          
H365     H      0.155400000000     0.029400000000     0.112010000000     0          
H366     H      0.223130000000     0.056230000000     0.897600000000     0          
H367     H      0.234780000000     0.008810000000     0.028820000000     0          
H368     H      0.218570000000     0.074800000000     0.073580000000     0          
H369     H      0.655400000000     0.529400000000     0.612010000000     0          
H370     H      0.723130000000     0.556230000000     0.397600000000     0          
H371     H      0.734780000000     0.508810000000     0.528820000000     0          
H372     H      0.718570000000     0.574800000000     0.573580000000     0          
H373     H      0.970600000000     0.155400000000     0.112010000000     0          
H374     H      0.926380000000     0.218860000000     0.076720000000     0          
H375     H      0.942170000000     0.222740000000     0.898790000000     0          
H376     H      0.991610000000     0.234880000000     0.024500000000     0          
H377     H      0.470600000000     0.655400000000     0.612010000000     0          
H378     H      0.426380000000     0.718860000000     0.576720000000     0          
H379     H      0.442170000000     0.722740000000     0.398790000000     0          
H380     H      0.491610000000     0.734880000000     0.524500000000     0          
H381     H      0.029400000000     0.844600000000     0.112010000000     0          
H382     H      0.035390000000     0.771750000000     0.898790000000     0          
H383     H      0.019610000000     0.767880000000     0.076720000000     0          
H384     H      0.084830000000     0.783890000000     0.024500000000     0          
H385     H      0.529400000000     0.344600000000     0.612010000000     0          
H386     H      0.535390000000     0.271750000000     0.398790000000     0          
H387     H      0.519610000000     0.267880000000     0.576720000000     0          
H388     H      0.584830000000     0.283890000000     0.524500000000     0          


