data_SURHEU

_audit_creation_method RASPA-1.0
_audit_creation_date 2020-12-14
_audit_author_name 'Rocio Bueno-Perez'

_cell_length_a    20.757
_cell_length_b    20.757
_cell_length_c    20.757
_cell_angle_alpha 90
_cell_angle_beta  90
_cell_angle_gamma 90
_cell_volume      8943.22

_symmetry_cell_setting          triclinic
_symmetry_space_group_name_Hall 'P 1'
_symmetry_space_group_name_H-M  'P 1'
_symmetry_Int_Tables_number     1

_symmetry_equiv_pos_as_xyz 'x,y,z'

loop_
_atom_site_label
_atom_site_type_symbol
_atom_site_fract_x
_atom_site_fract_y
_atom_site_fract_z
_atom_site_charge
Zr1      Zr     0.119290000000     0.000000000000     0.000000000000     0          
Zr2      Zr     0.119290000000     0.500000000000     0.500000000000     0          
Zr3      Zr     0.619290000000     0.000000000000     0.500000000000     0          
Zr4      Zr     0.619290000000     0.500000000000     0.000000000000     0          
Zr5      Zr     0.880710000000     0.000000000000     0.000000000000     0          
Zr6      Zr     0.880710000000     0.500000000000     0.500000000000     0          
Zr7      Zr     0.380710000000     0.000000000000     0.500000000000     0          
Zr8      Zr     0.380710000000     0.500000000000     0.000000000000     0          
Zr9      Zr     0.000000000000     0.119290000000     0.000000000000     0          
Zr10     Zr     0.000000000000     0.619290000000     0.500000000000     0          
Zr11     Zr     0.500000000000     0.119290000000     0.500000000000     0          
Zr12     Zr     0.500000000000     0.619290000000     0.000000000000     0          
Zr13     Zr     0.000000000000     0.880710000000     0.000000000000     0          
Zr14     Zr     0.000000000000     0.380710000000     0.500000000000     0          
Zr15     Zr     0.500000000000     0.880710000000     0.500000000000     0          
Zr16     Zr     0.500000000000     0.380710000000     0.000000000000     0          
Zr17     Zr     0.000000000000     0.000000000000     0.119290000000     0          
Zr18     Zr     0.000000000000     0.500000000000     0.619290000000     0          
Zr19     Zr     0.500000000000     0.000000000000     0.619290000000     0          
Zr20     Zr     0.500000000000     0.500000000000     0.119290000000     0          
Zr21     Zr     0.000000000000     0.000000000000     0.880710000000     0          
Zr22     Zr     0.000000000000     0.500000000000     0.380710000000     0          
Zr23     Zr     0.500000000000     0.000000000000     0.380710000000     0          
Zr24     Zr     0.500000000000     0.500000000000     0.880710000000     0          
O25      O      0.170840000000     0.093840000000     0.000000000000     0          
C26      C      0.185800000000     0.266900000000     0.000000000000     0          
H27      H      0.142500000000     0.278500000000     0.000000000000     0          
O28      O      0.170840000000     0.593840000000     0.500000000000     0          
C29      C      0.185800000000     0.766900000000     0.500000000000     0          
H30      H      0.142500000000     0.778500000000     0.500000000000     0          
O31      O      0.670840000000     0.093840000000     0.500000000000     0          
C32      C      0.685800000000     0.266900000000     0.500000000000     0          
H33      H      0.642500000000     0.278500000000     0.500000000000     0          
O34      O      0.670840000000     0.593840000000     0.000000000000     0          
C35      C      0.685800000000     0.766900000000     0.000000000000     0          
H36      H      0.642500000000     0.778500000000     0.000000000000     0          
O37      O      0.829160000000     0.906160000000     0.000000000000     0          
C38      C      0.814200000000     0.733100000000     0.000000000000     0          
H39      H      0.857500000000     0.721500000000     0.000000000000     0          
O40      O      0.829160000000     0.406160000000     0.500000000000     0          
C41      C      0.814200000000     0.233100000000     0.500000000000     0          
H42      H      0.857500000000     0.221500000000     0.500000000000     0          
O43      O      0.329160000000     0.906160000000     0.500000000000     0          
C44      C      0.314200000000     0.733100000000     0.500000000000     0          
H45      H      0.357500000000     0.721500000000     0.500000000000     0          
O46      O      0.329160000000     0.406160000000     0.000000000000     0          
C47      C      0.314200000000     0.233100000000     0.000000000000     0          
H48      H      0.357500000000     0.221500000000     0.000000000000     0          
O49      O      0.829160000000     0.093840000000     0.000000000000     0          
C50      C      0.814200000000     0.266900000000     0.000000000000     0          
H51      H      0.857500000000     0.278500000000     0.000000000000     0          
O52      O      0.829160000000     0.593840000000     0.500000000000     0          
C53      C      0.814200000000     0.766900000000     0.500000000000     0          
H54      H      0.857500000000     0.778500000000     0.500000000000     0          
O55      O      0.329160000000     0.093840000000     0.500000000000     0          
C56      C      0.314200000000     0.266900000000     0.500000000000     0          
H57      H      0.357500000000     0.278500000000     0.500000000000     0          
O58      O      0.329160000000     0.593840000000     0.000000000000     0          
C59      C      0.314200000000     0.766900000000     0.000000000000     0          
H60      H      0.357500000000     0.778500000000     0.000000000000     0          
O61      O      0.170840000000     0.906160000000     0.000000000000     0          
C62      C      0.185800000000     0.733100000000     0.000000000000     0          
H63      H      0.142500000000     0.721500000000     0.000000000000     0          
O64      O      0.170840000000     0.406160000000     0.500000000000     0          
C65      C      0.185800000000     0.233100000000     0.500000000000     0          
H66      H      0.142500000000     0.221500000000     0.500000000000     0          
O67      O      0.670840000000     0.906160000000     0.500000000000     0          
C68      C      0.685800000000     0.733100000000     0.500000000000     0          
H69      H      0.642500000000     0.721500000000     0.500000000000     0          
O70      O      0.670840000000     0.406160000000     0.000000000000     0          
C71      C      0.685800000000     0.233100000000     0.000000000000     0          
H72      H      0.642500000000     0.221500000000     0.000000000000     0          
O73      O      0.000000000000     0.170840000000     0.093840000000     0          
C74      C      0.000000000000     0.185800000000     0.266900000000     0          
H75      H      0.000000000000     0.142500000000     0.278500000000     0          
O76      O      0.000000000000     0.670840000000     0.593840000000     0          
C77      C      0.000000000000     0.685800000000     0.766900000000     0          
H78      H      0.000000000000     0.642500000000     0.778500000000     0          
O79      O      0.500000000000     0.170840000000     0.593840000000     0          
C80      C      0.500000000000     0.185800000000     0.766900000000     0          
H81      H      0.500000000000     0.142500000000     0.778500000000     0          
O82      O      0.500000000000     0.670840000000     0.093840000000     0          
C83      C      0.500000000000     0.685800000000     0.266900000000     0          
H84      H      0.500000000000     0.642500000000     0.278500000000     0          
O85      O      0.000000000000     0.829160000000     0.906160000000     0          
C86      C      0.000000000000     0.814200000000     0.733100000000     0          
H87      H      0.000000000000     0.857500000000     0.721500000000     0          
O88      O      0.000000000000     0.329160000000     0.406160000000     0          
C89      C      0.000000000000     0.314200000000     0.233100000000     0          
H90      H      0.000000000000     0.357500000000     0.221500000000     0          
O91      O      0.500000000000     0.829160000000     0.406160000000     0          
C92      C      0.500000000000     0.814200000000     0.233100000000     0          
H93      H      0.500000000000     0.857500000000     0.221500000000     0          
O94      O      0.500000000000     0.329160000000     0.906160000000     0          
C95      C      0.500000000000     0.314200000000     0.733100000000     0          
H96      H      0.500000000000     0.357500000000     0.721500000000     0          
O97      O      0.000000000000     0.829160000000     0.093840000000     0          
C98      C      0.000000000000     0.814200000000     0.266900000000     0          
H99      H      0.000000000000     0.857500000000     0.278500000000     0          
O100     O      0.000000000000     0.329160000000     0.593840000000     0          
C101     C      0.000000000000     0.314200000000     0.766900000000     0          
H102     H      0.000000000000     0.357500000000     0.778500000000     0          
O103     O      0.500000000000     0.829160000000     0.593840000000     0          
C104     C      0.500000000000     0.814200000000     0.766900000000     0          
H105     H      0.500000000000     0.857500000000     0.778500000000     0          
O106     O      0.500000000000     0.329160000000     0.093840000000     0          
C107     C      0.500000000000     0.314200000000     0.266900000000     0          
H108     H      0.500000000000     0.357500000000     0.278500000000     0          
O109     O      0.000000000000     0.170840000000     0.906160000000     0          
C110     C      0.000000000000     0.185800000000     0.733100000000     0          
H111     H      0.000000000000     0.142500000000     0.721500000000     0          
O112     O      0.000000000000     0.670840000000     0.406160000000     0          
C113     C      0.000000000000     0.685800000000     0.233100000000     0          
H114     H      0.000000000000     0.642500000000     0.221500000000     0          
O115     O      0.500000000000     0.170840000000     0.406160000000     0          
C116     C      0.500000000000     0.185800000000     0.233100000000     0          
H117     H      0.500000000000     0.142500000000     0.221500000000     0          
O118     O      0.500000000000     0.670840000000     0.906160000000     0          
C119     C      0.500000000000     0.685800000000     0.733100000000     0          
H120     H      0.500000000000     0.642500000000     0.721500000000     0          
O121     O      0.093840000000     0.000000000000     0.170840000000     0          
C122     C      0.266900000000     0.000000000000     0.185800000000     0          
H123     H      0.278500000000     0.000000000000     0.142500000000     0          
O124     O      0.093840000000     0.500000000000     0.670840000000     0          
C125     C      0.266900000000     0.500000000000     0.685800000000     0          
H126     H      0.278500000000     0.500000000000     0.642500000000     0          
O127     O      0.593840000000     0.000000000000     0.670840000000     0          
C128     C      0.766900000000     0.000000000000     0.685800000000     0          
H129     H      0.778500000000     0.000000000000     0.642500000000     0          
O130     O      0.593840000000     0.500000000000     0.170840000000     0          
C131     C      0.766900000000     0.500000000000     0.185800000000     0          
H132     H      0.778500000000     0.500000000000     0.142500000000     0          
O133     O      0.906160000000     0.000000000000     0.829160000000     0          
C134     C      0.733100000000     0.000000000000     0.814200000000     0          
H135     H      0.721500000000     0.000000000000     0.857500000000     0          
O136     O      0.906160000000     0.500000000000     0.329160000000     0          
C137     C      0.733100000000     0.500000000000     0.314200000000     0          
H138     H      0.721500000000     0.500000000000     0.357500000000     0          
O139     O      0.406160000000     0.000000000000     0.329160000000     0          
C140     C      0.233100000000     0.000000000000     0.314200000000     0          
H141     H      0.221500000000     0.000000000000     0.357500000000     0          
O142     O      0.406160000000     0.500000000000     0.829160000000     0          
C143     C      0.233100000000     0.500000000000     0.814200000000     0          
H144     H      0.221500000000     0.500000000000     0.857500000000     0          
O145     O      0.093840000000     0.000000000000     0.829160000000     0          
C146     C      0.266900000000     0.000000000000     0.814200000000     0          
H147     H      0.278500000000     0.000000000000     0.857500000000     0          
O148     O      0.093840000000     0.500000000000     0.329160000000     0          
C149     C      0.266900000000     0.500000000000     0.314200000000     0          
H150     H      0.278500000000     0.500000000000     0.357500000000     0          
O151     O      0.593840000000     0.000000000000     0.329160000000     0          
C152     C      0.766900000000     0.000000000000     0.314200000000     0          
H153     H      0.778500000000     0.000000000000     0.357500000000     0          
O154     O      0.593840000000     0.500000000000     0.829160000000     0          
C155     C      0.766900000000     0.500000000000     0.814200000000     0          
H156     H      0.778500000000     0.500000000000     0.857500000000     0          
O157     O      0.906160000000     0.000000000000     0.170840000000     0          
C158     C      0.733100000000     0.000000000000     0.185800000000     0          
H159     H      0.721500000000     0.000000000000     0.142500000000     0          
O160     O      0.906160000000     0.500000000000     0.670840000000     0          
C161     C      0.733100000000     0.500000000000     0.685800000000     0          
H162     H      0.721500000000     0.500000000000     0.642500000000     0          
O163     O      0.406160000000     0.000000000000     0.670840000000     0          
C164     C      0.233100000000     0.000000000000     0.685800000000     0          
H165     H      0.221500000000     0.000000000000     0.642500000000     0          
O166     O      0.406160000000     0.500000000000     0.170840000000     0          
C167     C      0.233100000000     0.500000000000     0.185800000000     0          
H168     H      0.221500000000     0.500000000000     0.142500000000     0          
O169     O      0.093840000000     0.170840000000     0.000000000000     0          
C170     C      0.266900000000     0.185800000000     0.000000000000     0          
H171     H      0.278500000000     0.142500000000     0.000000000000     0          
O172     O      0.093840000000     0.670840000000     0.500000000000     0          
C173     C      0.266900000000     0.685800000000     0.500000000000     0          
H174     H      0.278500000000     0.642500000000     0.500000000000     0          
O175     O      0.593840000000     0.170840000000     0.500000000000     0          
C176     C      0.766900000000     0.185800000000     0.500000000000     0          
H177     H      0.778500000000     0.142500000000     0.500000000000     0          
O178     O      0.593840000000     0.670840000000     0.000000000000     0          
C179     C      0.766900000000     0.685800000000     0.000000000000     0          
H180     H      0.778500000000     0.642500000000     0.000000000000     0          
O181     O      0.906160000000     0.829160000000     0.000000000000     0          
C182     C      0.733100000000     0.814200000000     0.000000000000     0          
H183     H      0.721500000000     0.857500000000     0.000000000000     0          
O184     O      0.906160000000     0.329160000000     0.500000000000     0          
C185     C      0.733100000000     0.314200000000     0.500000000000     0          
H186     H      0.721500000000     0.357500000000     0.500000000000     0          
O187     O      0.406160000000     0.829160000000     0.500000000000     0          
C188     C      0.233100000000     0.814200000000     0.500000000000     0          
H189     H      0.221500000000     0.857500000000     0.500000000000     0          
O190     O      0.406160000000     0.329160000000     0.000000000000     0          
C191     C      0.233100000000     0.314200000000     0.000000000000     0          
H192     H      0.221500000000     0.357500000000     0.000000000000     0          
O193     O      0.093840000000     0.829160000000     0.000000000000     0          
C194     C      0.266900000000     0.814200000000     0.000000000000     0          
H195     H      0.278500000000     0.857500000000     0.000000000000     0          
O196     O      0.093840000000     0.329160000000     0.500000000000     0          
C197     C      0.266900000000     0.314200000000     0.500000000000     0          
H198     H      0.278500000000     0.357500000000     0.500000000000     0          
O199     O      0.593840000000     0.829160000000     0.500000000000     0          
C200     C      0.766900000000     0.814200000000     0.500000000000     0          
H201     H      0.778500000000     0.857500000000     0.500000000000     0          
O202     O      0.593840000000     0.329160000000     0.000000000000     0          
C203     C      0.766900000000     0.314200000000     0.000000000000     0          
H204     H      0.778500000000     0.357500000000     0.000000000000     0          
O205     O      0.906160000000     0.170840000000     0.000000000000     0          
C206     C      0.733100000000     0.185800000000     0.000000000000     0          
H207     H      0.721500000000     0.142500000000     0.000000000000     0          
O208     O      0.906160000000     0.670840000000     0.500000000000     0          
C209     C      0.733100000000     0.685800000000     0.500000000000     0          
H210     H      0.721500000000     0.642500000000     0.500000000000     0          
O211     O      0.406160000000     0.170840000000     0.500000000000     0          
C212     C      0.233100000000     0.185800000000     0.500000000000     0          
H213     H      0.221500000000     0.142500000000     0.500000000000     0          
O214     O      0.406160000000     0.670840000000     0.000000000000     0          
C215     C      0.233100000000     0.685800000000     0.000000000000     0          
H216     H      0.221500000000     0.642500000000     0.000000000000     0          
O217     O      0.170840000000     0.000000000000     0.906160000000     0          
C218     C      0.185800000000     0.000000000000     0.733100000000     0          
H219     H      0.142500000000     0.000000000000     0.721500000000     0          
O220     O      0.170840000000     0.500000000000     0.406160000000     0          
C221     C      0.185800000000     0.500000000000     0.233100000000     0          
H222     H      0.142500000000     0.500000000000     0.221500000000     0          
O223     O      0.670840000000     0.000000000000     0.406160000000     0          
C224     C      0.685800000000     0.000000000000     0.233100000000     0          
H225     H      0.642500000000     0.000000000000     0.221500000000     0          
O226     O      0.670840000000     0.500000000000     0.906160000000     0          
C227     C      0.685800000000     0.500000000000     0.733100000000     0          
H228     H      0.642500000000     0.500000000000     0.721500000000     0          
O229     O      0.829160000000     0.000000000000     0.093840000000     0          
C230     C      0.814200000000     0.000000000000     0.266900000000     0          
H231     H      0.857500000000     0.000000000000     0.278500000000     0          
O232     O      0.829160000000     0.500000000000     0.593840000000     0          
C233     C      0.814200000000     0.500000000000     0.766900000000     0          
H234     H      0.857500000000     0.500000000000     0.778500000000     0          
O235     O      0.329160000000     0.000000000000     0.593840000000     0          
C236     C      0.314200000000     0.000000000000     0.766900000000     0          
H237     H      0.357500000000     0.000000000000     0.778500000000     0          
O238     O      0.329160000000     0.500000000000     0.093840000000     0          
C239     C      0.314200000000     0.500000000000     0.266900000000     0          
H240     H      0.357500000000     0.500000000000     0.278500000000     0          
O241     O      0.829160000000     0.000000000000     0.906160000000     0          
C242     C      0.814200000000     0.000000000000     0.733100000000     0          
H243     H      0.857500000000     0.000000000000     0.721500000000     0          
O244     O      0.829160000000     0.500000000000     0.406160000000     0          
C245     C      0.814200000000     0.500000000000     0.233100000000     0          
H246     H      0.857500000000     0.500000000000     0.221500000000     0          
O247     O      0.329160000000     0.000000000000     0.406160000000     0          
C248     C      0.314200000000     0.000000000000     0.233100000000     0          
H249     H      0.357500000000     0.000000000000     0.221500000000     0          
O250     O      0.329160000000     0.500000000000     0.906160000000     0          
C251     C      0.314200000000     0.500000000000     0.733100000000     0          
H252     H      0.357500000000     0.500000000000     0.721500000000     0          
O253     O      0.170840000000     0.000000000000     0.093840000000     0          
C254     C      0.185800000000     0.000000000000     0.266900000000     0          
H255     H      0.142500000000     0.000000000000     0.278500000000     0          
O256     O      0.170840000000     0.500000000000     0.593840000000     0          
C257     C      0.185800000000     0.500000000000     0.766900000000     0          
H258     H      0.142500000000     0.500000000000     0.778500000000     0          
O259     O      0.670840000000     0.000000000000     0.593840000000     0          
C260     C      0.685800000000     0.000000000000     0.766900000000     0          
H261     H      0.642500000000     0.000000000000     0.778500000000     0          
O262     O      0.670840000000     0.500000000000     0.093840000000     0          
C263     C      0.685800000000     0.500000000000     0.266900000000     0          
H264     H      0.642500000000     0.500000000000     0.278500000000     0          
O265     O      0.000000000000     0.093840000000     0.829160000000     0          
C266     C      0.000000000000     0.266900000000     0.814200000000     0          
H267     H      0.000000000000     0.278500000000     0.857500000000     0          
O268     O      0.000000000000     0.593840000000     0.329160000000     0          
C269     C      0.000000000000     0.766900000000     0.314200000000     0          
H270     H      0.000000000000     0.778500000000     0.357500000000     0          
O271     O      0.500000000000     0.093840000000     0.329160000000     0          
C272     C      0.500000000000     0.266900000000     0.314200000000     0          
H273     H      0.500000000000     0.278500000000     0.357500000000     0          
O274     O      0.500000000000     0.593840000000     0.829160000000     0          
C275     C      0.500000000000     0.766900000000     0.814200000000     0          
H276     H      0.500000000000     0.778500000000     0.857500000000     0          
O277     O      0.000000000000     0.906160000000     0.170840000000     0          
C278     C      0.000000000000     0.733100000000     0.185800000000     0          
H279     H      0.000000000000     0.721500000000     0.142500000000     0          
O280     O      0.000000000000     0.406160000000     0.670840000000     0          
C281     C      0.000000000000     0.233100000000     0.685800000000     0          
H282     H      0.000000000000     0.221500000000     0.642500000000     0          
O283     O      0.500000000000     0.906160000000     0.670840000000     0          
C284     C      0.500000000000     0.733100000000     0.685800000000     0          
H285     H      0.500000000000     0.721500000000     0.642500000000     0          
O286     O      0.500000000000     0.406160000000     0.170840000000     0          
C287     C      0.500000000000     0.233100000000     0.185800000000     0          
H288     H      0.500000000000     0.221500000000     0.142500000000     0          
O289     O      0.000000000000     0.093840000000     0.170840000000     0          
C290     C      0.000000000000     0.266900000000     0.185800000000     0          
H291     H      0.000000000000     0.278500000000     0.142500000000     0          
O292     O      0.000000000000     0.593840000000     0.670840000000     0          
C293     C      0.000000000000     0.766900000000     0.685800000000     0          
H294     H      0.000000000000     0.778500000000     0.642500000000     0          
O295     O      0.500000000000     0.093840000000     0.670840000000     0          
C296     C      0.500000000000     0.266900000000     0.685800000000     0          
H297     H      0.500000000000     0.278500000000     0.642500000000     0          
O298     O      0.500000000000     0.593840000000     0.170840000000     0          
C299     C      0.500000000000     0.766900000000     0.185800000000     0          
H300     H      0.500000000000     0.778500000000     0.142500000000     0          
O301     O      0.000000000000     0.906160000000     0.829160000000     0          
C302     C      0.000000000000     0.733100000000     0.814200000000     0          
H303     H      0.000000000000     0.721500000000     0.857500000000     0          
O304     O      0.000000000000     0.406160000000     0.329160000000     0          
C305     C      0.000000000000     0.233100000000     0.314200000000     0          
H306     H      0.000000000000     0.221500000000     0.357500000000     0          
O307     O      0.500000000000     0.906160000000     0.329160000000     0          
C308     C      0.500000000000     0.733100000000     0.314200000000     0          
H309     H      0.500000000000     0.721500000000     0.357500000000     0          
O310     O      0.500000000000     0.406160000000     0.829160000000     0          
C311     C      0.500000000000     0.233100000000     0.814200000000     0          
H312     H      0.500000000000     0.221500000000     0.857500000000     0          
C313     C      0.151570000000     0.151570000000     0.000000000000     0          
C314     C      0.202790000000     0.202790000000     0.000000000000     0          
C315     C      0.151570000000     0.651570000000     0.500000000000     0          
C316     C      0.202790000000     0.702790000000     0.500000000000     0          
C317     C      0.651570000000     0.151570000000     0.500000000000     0          
C318     C      0.702790000000     0.202790000000     0.500000000000     0          
C319     C      0.651570000000     0.651570000000     0.000000000000     0          
C320     C      0.702790000000     0.702790000000     0.000000000000     0          
C321     C      0.848430000000     0.848430000000     0.000000000000     0          
C322     C      0.797210000000     0.797210000000     0.000000000000     0          
C323     C      0.848430000000     0.348430000000     0.500000000000     0          
C324     C      0.797210000000     0.297210000000     0.500000000000     0          
C325     C      0.348430000000     0.848430000000     0.500000000000     0          
C326     C      0.297210000000     0.797210000000     0.500000000000     0          
C327     C      0.348430000000     0.348430000000     0.000000000000     0          
C328     C      0.297210000000     0.297210000000     0.000000000000     0          
C329     C      0.848430000000     0.151570000000     0.000000000000     0          
C330     C      0.797210000000     0.202790000000     0.000000000000     0          
C331     C      0.848430000000     0.651570000000     0.500000000000     0          
C332     C      0.797210000000     0.702790000000     0.500000000000     0          
C333     C      0.348430000000     0.151570000000     0.500000000000     0          
C334     C      0.297210000000     0.202790000000     0.500000000000     0          
C335     C      0.348430000000     0.651570000000     0.000000000000     0          
C336     C      0.297210000000     0.702790000000     0.000000000000     0          
C337     C      0.151570000000     0.848430000000     0.000000000000     0          
C338     C      0.202790000000     0.797210000000     0.000000000000     0          
C339     C      0.151570000000     0.348430000000     0.500000000000     0          
C340     C      0.202790000000     0.297210000000     0.500000000000     0          
C341     C      0.651570000000     0.848430000000     0.500000000000     0          
C342     C      0.702790000000     0.797210000000     0.500000000000     0          
C343     C      0.651570000000     0.348430000000     0.000000000000     0          
C344     C      0.702790000000     0.297210000000     0.000000000000     0          
C345     C      0.000000000000     0.151570000000     0.151570000000     0          
C346     C      0.000000000000     0.202790000000     0.202790000000     0          
C347     C      0.000000000000     0.651570000000     0.651570000000     0          
C348     C      0.000000000000     0.702790000000     0.702790000000     0          
C349     C      0.500000000000     0.151570000000     0.651570000000     0          
C350     C      0.500000000000     0.202790000000     0.702790000000     0          
C351     C      0.500000000000     0.651570000000     0.151570000000     0          
C352     C      0.500000000000     0.702790000000     0.202790000000     0          
C353     C      0.000000000000     0.848430000000     0.848430000000     0          
C354     C      0.000000000000     0.797210000000     0.797210000000     0          
C355     C      0.000000000000     0.348430000000     0.348430000000     0          
C356     C      0.000000000000     0.297210000000     0.297210000000     0          
C357     C      0.500000000000     0.848430000000     0.348430000000     0          
C358     C      0.500000000000     0.797210000000     0.297210000000     0          
C359     C      0.500000000000     0.348430000000     0.848430000000     0          
C360     C      0.500000000000     0.297210000000     0.797210000000     0          
C361     C      0.000000000000     0.848430000000     0.151570000000     0          
C362     C      0.000000000000     0.797210000000     0.202790000000     0          
C363     C      0.000000000000     0.348430000000     0.651570000000     0          
C364     C      0.000000000000     0.297210000000     0.702790000000     0          
C365     C      0.500000000000     0.848430000000     0.651570000000     0          
C366     C      0.500000000000     0.797210000000     0.702790000000     0          
C367     C      0.500000000000     0.348430000000     0.151570000000     0          
C368     C      0.500000000000     0.297210000000     0.202790000000     0          
C369     C      0.000000000000     0.151570000000     0.848430000000     0          
C370     C      0.000000000000     0.202790000000     0.797210000000     0          
C371     C      0.000000000000     0.651570000000     0.348430000000     0          
C372     C      0.000000000000     0.702790000000     0.297210000000     0          
C373     C      0.500000000000     0.151570000000     0.348430000000     0          
C374     C      0.500000000000     0.202790000000     0.297210000000     0          
C375     C      0.500000000000     0.651570000000     0.848430000000     0          
C376     C      0.500000000000     0.702790000000     0.797210000000     0          
C377     C      0.151570000000     0.000000000000     0.151570000000     0          
C378     C      0.202790000000     0.000000000000     0.202790000000     0          
C379     C      0.151570000000     0.500000000000     0.651570000000     0          
C380     C      0.202790000000     0.500000000000     0.702790000000     0          
C381     C      0.651570000000     0.000000000000     0.651570000000     0          
C382     C      0.702790000000     0.000000000000     0.702790000000     0          
C383     C      0.651570000000     0.500000000000     0.151570000000     0          
C384     C      0.702790000000     0.500000000000     0.202790000000     0          
C385     C      0.848430000000     0.000000000000     0.848430000000     0          
C386     C      0.797210000000     0.000000000000     0.797210000000     0          
C387     C      0.848430000000     0.500000000000     0.348430000000     0          
C388     C      0.797210000000     0.500000000000     0.297210000000     0          
C389     C      0.348430000000     0.000000000000     0.348430000000     0          
C390     C      0.297210000000     0.000000000000     0.297210000000     0          
C391     C      0.348430000000     0.500000000000     0.848430000000     0          
C392     C      0.297210000000     0.500000000000     0.797210000000     0          
C393     C      0.151570000000     0.000000000000     0.848430000000     0          
C394     C      0.202790000000     0.000000000000     0.797210000000     0          
C395     C      0.151570000000     0.500000000000     0.348430000000     0          
C396     C      0.202790000000     0.500000000000     0.297210000000     0          
C397     C      0.651570000000     0.000000000000     0.348430000000     0          
C398     C      0.702790000000     0.000000000000     0.297210000000     0          
C399     C      0.651570000000     0.500000000000     0.848430000000     0          
C400     C      0.702790000000     0.500000000000     0.797210000000     0          
C401     C      0.848430000000     0.000000000000     0.151570000000     0          
C402     C      0.797210000000     0.000000000000     0.202790000000     0          
C403     C      0.848430000000     0.500000000000     0.651570000000     0          
C404     C      0.797210000000     0.500000000000     0.702790000000     0          
C405     C      0.348430000000     0.000000000000     0.651570000000     0          
C406     C      0.297210000000     0.000000000000     0.702790000000     0          
C407     C      0.348430000000     0.500000000000     0.151570000000     0          
C408     C      0.297210000000     0.500000000000     0.202790000000     0          
O409     O      0.067600000000     0.067600000000     0.067600000000     0          
O410     O      0.067600000000     0.567600000000     0.567600000000     0          
O411     O      0.567600000000     0.067600000000     0.567600000000     0          
O412     O      0.567600000000     0.567600000000     0.067600000000     0          
O413     O      0.932400000000     0.932400000000     0.067600000000     0          
O414     O      0.932400000000     0.432400000000     0.567600000000     0          
O415     O      0.432400000000     0.932400000000     0.567600000000     0          
O416     O      0.432400000000     0.432400000000     0.067600000000     0          
O417     O      0.932400000000     0.067600000000     0.932400000000     0          
O418     O      0.932400000000     0.567600000000     0.432400000000     0          
O419     O      0.432400000000     0.067600000000     0.432400000000     0          
O420     O      0.432400000000     0.567600000000     0.932400000000     0          
O421     O      0.067600000000     0.932400000000     0.932400000000     0          
O422     O      0.067600000000     0.432400000000     0.432400000000     0          
O423     O      0.567600000000     0.932400000000     0.432400000000     0          
O424     O      0.567600000000     0.432400000000     0.932400000000     0          
O425     O      0.067600000000     0.067600000000     0.932400000000     0          
O426     O      0.067600000000     0.567600000000     0.432400000000     0          
O427     O      0.567600000000     0.067600000000     0.432400000000     0          
O428     O      0.567600000000     0.567600000000     0.932400000000     0          
O429     O      0.932400000000     0.932400000000     0.932400000000     0          
O430     O      0.932400000000     0.432400000000     0.432400000000     0          
O431     O      0.432400000000     0.932400000000     0.432400000000     0          
O432     O      0.432400000000     0.432400000000     0.932400000000     0          
O433     O      0.067600000000     0.932400000000     0.067600000000     0          
O434     O      0.067600000000     0.432400000000     0.567600000000     0          
O435     O      0.567600000000     0.932400000000     0.567600000000     0          
O436     O      0.567600000000     0.432400000000     0.067600000000     0          
O437     O      0.932400000000     0.067600000000     0.067600000000     0          
O438     O      0.932400000000     0.567600000000     0.567600000000     0          
O439     O      0.432400000000     0.067600000000     0.567600000000     0          
O440     O      0.432400000000     0.567600000000     0.067600000000     0          


