data_SURJOG

_audit_creation_method RASPA-1.0
_audit_creation_date 2020-11-2
_audit_author_name 'Rocio Bueno-Perez'

_cell_length_a    20.769
_cell_length_b    20.769
_cell_length_c    20.769
_cell_angle_alpha 90
_cell_angle_beta  90
_cell_angle_gamma 90
_cell_volume      8958.74

_symmetry_cell_setting          triclinic
_symmetry_space_group_name_Hall 'P 1'
_symmetry_space_group_name_H-M  'P 1'
_symmetry_Int_Tables_number     1

_symmetry_equiv_pos_as_xyz 'x,y,z'

loop_
_atom_site_label
_atom_site_type_symbol
_atom_site_fract_x
_atom_site_fract_y
_atom_site_fract_z
_atom_site_charge
Br1      Br     0.310000000000     0.099600000000     0.014200000000     0          
Br2      Br     0.810000000000     0.099600000000     0.514200000000     0          
Br3      Br     0.190000000000     0.900400000000     0.514200000000     0          
Br4      Br     0.310000000000     0.900400000000     0.985800000000     0          
Br5      Br     0.400400000000     0.985800000000     0.810000000000     0          
Br6      Br     0.310000000000     0.485800000000     0.599600000000     0          
Br7      Br     0.810000000000     0.985800000000     0.599600000000     0          
Br8      Br     0.014200000000     0.099600000000     0.690000000000     0          
Br9      Br     0.514200000000     0.099600000000     0.190000000000     0          
Br10     Br     0.514200000000     0.900400000000     0.810000000000     0          
Br11     Br     0.485800000000     0.599600000000     0.310000000000     0          
Br12     Br     0.810000000000     0.599600000000     0.985800000000     0          
Br13     Br     0.810000000000     0.900400000000     0.514200000000     0          
Br14     Br     0.985800000000     0.190000000000     0.400400000000     0          
Br15     Br     0.900400000000     0.514200000000     0.810000000000     0          
Br16     Br     0.400400000000     0.310000000000     0.485800000000     0          
Br17     Br     0.599600000000     0.190000000000     0.985800000000     0          
Br18     Br     0.310000000000     0.485800000000     0.400400000000     0          
Br19     Br     0.810000000000     0.985800000000     0.400400000000     0          
Br20     Br     0.690000000000     0.514200000000     0.400400000000     0          
Br21     Br     0.190000000000     0.014200000000     0.400400000000     0          
Br22     Br     0.985800000000     0.599600000000     0.190000000000     0          
Br23     Br     0.014200000000     0.900400000000     0.690000000000     0          
Br24     Br     0.514200000000     0.099600000000     0.810000000000     0          
Zr25     Zr     0.119080000000     0.000000000000     0.000000000000     0          
Zr26     Zr     0.119080000000     0.500000000000     0.500000000000     0          
Zr27     Zr     0.619080000000     0.000000000000     0.500000000000     0          
Zr28     Zr     0.619080000000     0.500000000000     0.000000000000     0          
Zr29     Zr     0.880920000000     0.000000000000     0.000000000000     0          
Zr30     Zr     0.880920000000     0.500000000000     0.500000000000     0          
Zr31     Zr     0.380920000000     0.000000000000     0.500000000000     0          
Zr32     Zr     0.380920000000     0.500000000000     0.000000000000     0          
Zr33     Zr     0.000000000000     0.119080000000     0.000000000000     0          
Zr34     Zr     0.000000000000     0.619080000000     0.500000000000     0          
Zr35     Zr     0.500000000000     0.119080000000     0.500000000000     0          
Zr36     Zr     0.500000000000     0.619080000000     0.000000000000     0          
Zr37     Zr     0.000000000000     0.880920000000     0.000000000000     0          
Zr38     Zr     0.000000000000     0.380920000000     0.500000000000     0          
Zr39     Zr     0.500000000000     0.880920000000     0.500000000000     0          
Zr40     Zr     0.500000000000     0.380920000000     0.000000000000     0          
Zr41     Zr     0.000000000000     0.000000000000     0.119080000000     0          
Zr42     Zr     0.000000000000     0.500000000000     0.619080000000     0          
Zr43     Zr     0.500000000000     0.000000000000     0.619080000000     0          
Zr44     Zr     0.500000000000     0.500000000000     0.119080000000     0          
Zr45     Zr     0.000000000000     0.000000000000     0.880920000000     0          
Zr46     Zr     0.000000000000     0.500000000000     0.380920000000     0          
Zr47     Zr     0.500000000000     0.000000000000     0.380920000000     0          
Zr48     Zr     0.500000000000     0.500000000000     0.880920000000     0          
O49      O      0.171160000000     0.093400000000     0.000000000000     0          
C50      C      0.266500000000     0.185800000000     0.000000000000     0          
O51      O      0.171160000000     0.593400000000     0.500000000000     0          
C52      C      0.266500000000     0.685800000000     0.500000000000     0          
O53      O      0.671160000000     0.093400000000     0.500000000000     0          
C54      C      0.766500000000     0.185800000000     0.500000000000     0          
O55      O      0.671160000000     0.593400000000     0.000000000000     0          
C56      C      0.766500000000     0.685800000000     0.000000000000     0          
O57      O      0.828840000000     0.906600000000     0.000000000000     0          
C58      C      0.733500000000     0.814200000000     0.000000000000     0          
O59      O      0.828840000000     0.406600000000     0.500000000000     0          
C60      C      0.733500000000     0.314200000000     0.500000000000     0          
O61      O      0.328840000000     0.906600000000     0.500000000000     0          
C62      C      0.233500000000     0.814200000000     0.500000000000     0          
O63      O      0.328840000000     0.406600000000     0.000000000000     0          
C64      C      0.233500000000     0.314200000000     0.000000000000     0          
O65      O      0.828840000000     0.093400000000     0.000000000000     0          
C66      C      0.733500000000     0.185800000000     0.000000000000     0          
O67      O      0.828840000000     0.593400000000     0.500000000000     0          
C68      C      0.733500000000     0.685800000000     0.500000000000     0          
O69      O      0.328840000000     0.093400000000     0.500000000000     0          
C70      C      0.233500000000     0.185800000000     0.500000000000     0          
O71      O      0.328840000000     0.593400000000     0.000000000000     0          
C72      C      0.233500000000     0.685800000000     0.000000000000     0          
O73      O      0.171160000000     0.906600000000     0.000000000000     0          
C74      C      0.266500000000     0.814200000000     0.000000000000     0          
O75      O      0.171160000000     0.406600000000     0.500000000000     0          
C76      C      0.266500000000     0.314200000000     0.500000000000     0          
O77      O      0.671160000000     0.906600000000     0.500000000000     0          
C78      C      0.766500000000     0.814200000000     0.500000000000     0          
O79      O      0.671160000000     0.406600000000     0.000000000000     0          
C80      C      0.766500000000     0.314200000000     0.000000000000     0          
O81      O      0.000000000000     0.171160000000     0.093400000000     0          
C82      C      0.000000000000     0.266500000000     0.185800000000     0          
O83      O      0.000000000000     0.671160000000     0.593400000000     0          
C84      C      0.000000000000     0.766500000000     0.685800000000     0          
O85      O      0.500000000000     0.171160000000     0.593400000000     0          
C86      C      0.500000000000     0.266500000000     0.685800000000     0          
O87      O      0.500000000000     0.671160000000     0.093400000000     0          
C88      C      0.500000000000     0.766500000000     0.185800000000     0          
O89      O      0.000000000000     0.828840000000     0.906600000000     0          
C90      C      0.000000000000     0.733500000000     0.814200000000     0          
O91      O      0.000000000000     0.328840000000     0.406600000000     0          
C92      C      0.000000000000     0.233500000000     0.314200000000     0          
O93      O      0.500000000000     0.828840000000     0.406600000000     0          
C94      C      0.500000000000     0.733500000000     0.314200000000     0          
O95      O      0.500000000000     0.328840000000     0.906600000000     0          
C96      C      0.500000000000     0.233500000000     0.814200000000     0          
O97      O      0.000000000000     0.828840000000     0.093400000000     0          
C98      C      0.000000000000     0.733500000000     0.185800000000     0          
O99      O      0.000000000000     0.328840000000     0.593400000000     0          
C100     C      0.000000000000     0.233500000000     0.685800000000     0          
O101     O      0.500000000000     0.828840000000     0.593400000000     0          
C102     C      0.500000000000     0.733500000000     0.685800000000     0          
O103     O      0.500000000000     0.328840000000     0.093400000000     0          
C104     C      0.500000000000     0.233500000000     0.185800000000     0          
O105     O      0.000000000000     0.171160000000     0.906600000000     0          
C106     C      0.000000000000     0.266500000000     0.814200000000     0          
O107     O      0.000000000000     0.671160000000     0.406600000000     0          
C108     C      0.000000000000     0.766500000000     0.314200000000     0          
O109     O      0.500000000000     0.171160000000     0.406600000000     0          
C110     C      0.500000000000     0.266500000000     0.314200000000     0          
O111     O      0.500000000000     0.671160000000     0.906600000000     0          
C112     C      0.500000000000     0.766500000000     0.814200000000     0          
O113     O      0.093400000000     0.000000000000     0.171160000000     0          
C114     C      0.185800000000     0.000000000000     0.266500000000     0          
O115     O      0.093400000000     0.500000000000     0.671160000000     0          
C116     C      0.185800000000     0.500000000000     0.766500000000     0          
O117     O      0.593400000000     0.000000000000     0.671160000000     0          
C118     C      0.685800000000     0.000000000000     0.766500000000     0          
O119     O      0.593400000000     0.500000000000     0.171160000000     0          
C120     C      0.685800000000     0.500000000000     0.266500000000     0          
O121     O      0.906600000000     0.000000000000     0.828840000000     0          
C122     C      0.814200000000     0.000000000000     0.733500000000     0          
O123     O      0.906600000000     0.500000000000     0.328840000000     0          
C124     C      0.814200000000     0.500000000000     0.233500000000     0          
O125     O      0.406600000000     0.000000000000     0.328840000000     0          
C126     C      0.314200000000     0.000000000000     0.233500000000     0          
O127     O      0.406600000000     0.500000000000     0.828840000000     0          
C128     C      0.314200000000     0.500000000000     0.733500000000     0          
O129     O      0.093400000000     0.000000000000     0.828840000000     0          
C130     C      0.185800000000     0.000000000000     0.733500000000     0          
O131     O      0.093400000000     0.500000000000     0.328840000000     0          
C132     C      0.185800000000     0.500000000000     0.233500000000     0          
O133     O      0.593400000000     0.000000000000     0.328840000000     0          
C134     C      0.685800000000     0.000000000000     0.233500000000     0          
O135     O      0.593400000000     0.500000000000     0.828840000000     0          
C136     C      0.685800000000     0.500000000000     0.733500000000     0          
O137     O      0.906600000000     0.000000000000     0.171160000000     0          
C138     C      0.814200000000     0.000000000000     0.266500000000     0          
O139     O      0.906600000000     0.500000000000     0.671160000000     0          
C140     C      0.814200000000     0.500000000000     0.766500000000     0          
O141     O      0.406600000000     0.000000000000     0.671160000000     0          
C142     C      0.314200000000     0.000000000000     0.766500000000     0          
O143     O      0.406600000000     0.500000000000     0.171160000000     0          
C144     C      0.314200000000     0.500000000000     0.266500000000     0          
O145     O      0.093400000000     0.171160000000     0.000000000000     0          
C146     C      0.185800000000     0.266500000000     0.000000000000     0          
O147     O      0.093400000000     0.671160000000     0.500000000000     0          
C148     C      0.185800000000     0.766500000000     0.500000000000     0          
O149     O      0.593400000000     0.171160000000     0.500000000000     0          
C150     C      0.685800000000     0.266500000000     0.500000000000     0          
O151     O      0.593400000000     0.671160000000     0.000000000000     0          
C152     C      0.685800000000     0.766500000000     0.000000000000     0          
O153     O      0.906600000000     0.828840000000     0.000000000000     0          
C154     C      0.814200000000     0.733500000000     0.000000000000     0          
O155     O      0.906600000000     0.328840000000     0.500000000000     0          
C156     C      0.814200000000     0.233500000000     0.500000000000     0          
O157     O      0.406600000000     0.828840000000     0.500000000000     0          
C158     C      0.314200000000     0.733500000000     0.500000000000     0          
O159     O      0.406600000000     0.328840000000     0.000000000000     0          
C160     C      0.314200000000     0.233500000000     0.000000000000     0          
O161     O      0.093400000000     0.828840000000     0.000000000000     0          
C162     C      0.185800000000     0.733500000000     0.000000000000     0          
O163     O      0.093400000000     0.328840000000     0.500000000000     0          
C164     C      0.185800000000     0.233500000000     0.500000000000     0          
O165     O      0.593400000000     0.828840000000     0.500000000000     0          
C166     C      0.685800000000     0.733500000000     0.500000000000     0          
O167     O      0.593400000000     0.328840000000     0.000000000000     0          
C168     C      0.685800000000     0.233500000000     0.000000000000     0          
O169     O      0.906600000000     0.171160000000     0.000000000000     0          
C170     C      0.814200000000     0.266500000000     0.000000000000     0          
O171     O      0.906600000000     0.671160000000     0.500000000000     0          
C172     C      0.814200000000     0.766500000000     0.500000000000     0          
O173     O      0.406600000000     0.171160000000     0.500000000000     0          
C174     C      0.314200000000     0.266500000000     0.500000000000     0          
O175     O      0.406600000000     0.671160000000     0.000000000000     0          
C176     C      0.314200000000     0.766500000000     0.000000000000     0          
O177     O      0.171160000000     0.000000000000     0.906600000000     0          
C178     C      0.266500000000     0.000000000000     0.814200000000     0          
O179     O      0.171160000000     0.500000000000     0.406600000000     0          
C180     C      0.266500000000     0.500000000000     0.314200000000     0          
O181     O      0.671160000000     0.000000000000     0.406600000000     0          
C182     C      0.766500000000     0.000000000000     0.314200000000     0          
O183     O      0.671160000000     0.500000000000     0.906600000000     0          
C184     C      0.766500000000     0.500000000000     0.814200000000     0          
O185     O      0.828840000000     0.000000000000     0.093400000000     0          
C186     C      0.733500000000     0.000000000000     0.185800000000     0          
O187     O      0.828840000000     0.500000000000     0.593400000000     0          
C188     C      0.733500000000     0.500000000000     0.685800000000     0          
O189     O      0.328840000000     0.000000000000     0.593400000000     0          
C190     C      0.233500000000     0.000000000000     0.685800000000     0          
O191     O      0.328840000000     0.500000000000     0.093400000000     0          
C192     C      0.233500000000     0.500000000000     0.185800000000     0          
O193     O      0.828840000000     0.000000000000     0.906600000000     0          
C194     C      0.733500000000     0.000000000000     0.814200000000     0          
O195     O      0.828840000000     0.500000000000     0.406600000000     0          
C196     C      0.733500000000     0.500000000000     0.314200000000     0          
O197     O      0.328840000000     0.000000000000     0.406600000000     0          
C198     C      0.233500000000     0.000000000000     0.314200000000     0          
O199     O      0.328840000000     0.500000000000     0.906600000000     0          
C200     C      0.233500000000     0.500000000000     0.814200000000     0          
O201     O      0.171160000000     0.000000000000     0.093400000000     0          
C202     C      0.266500000000     0.000000000000     0.185800000000     0          
O203     O      0.171160000000     0.500000000000     0.593400000000     0          
C204     C      0.266500000000     0.500000000000     0.685800000000     0          
O205     O      0.671160000000     0.000000000000     0.593400000000     0          
C206     C      0.766500000000     0.000000000000     0.685800000000     0          
O207     O      0.671160000000     0.500000000000     0.093400000000     0          
C208     C      0.766500000000     0.500000000000     0.185800000000     0          
O209     O      0.000000000000     0.093400000000     0.828840000000     0          
C210     C      0.000000000000     0.185800000000     0.733500000000     0          
O211     O      0.000000000000     0.593400000000     0.328840000000     0          
C212     C      0.000000000000     0.685800000000     0.233500000000     0          
O213     O      0.500000000000     0.093400000000     0.328840000000     0          
C214     C      0.500000000000     0.185800000000     0.233500000000     0          
O215     O      0.500000000000     0.593400000000     0.828840000000     0          
C216     C      0.500000000000     0.685800000000     0.733500000000     0          
O217     O      0.000000000000     0.906600000000     0.171160000000     0          
C218     C      0.000000000000     0.814200000000     0.266500000000     0          
O219     O      0.000000000000     0.406600000000     0.671160000000     0          
C220     C      0.000000000000     0.314200000000     0.766500000000     0          
O221     O      0.500000000000     0.906600000000     0.671160000000     0          
C222     C      0.500000000000     0.814200000000     0.766500000000     0          
O223     O      0.500000000000     0.406600000000     0.171160000000     0          
C224     C      0.500000000000     0.314200000000     0.266500000000     0          
O225     O      0.000000000000     0.093400000000     0.171160000000     0          
C226     C      0.000000000000     0.185800000000     0.266500000000     0          
O227     O      0.000000000000     0.593400000000     0.671160000000     0          
C228     C      0.000000000000     0.685800000000     0.766500000000     0          
O229     O      0.500000000000     0.093400000000     0.671160000000     0          
C230     C      0.500000000000     0.185800000000     0.766500000000     0          
O231     O      0.500000000000     0.593400000000     0.171160000000     0          
C232     C      0.500000000000     0.685800000000     0.266500000000     0          
O233     O      0.000000000000     0.906600000000     0.828840000000     0          
C234     C      0.000000000000     0.814200000000     0.733500000000     0          
O235     O      0.000000000000     0.406600000000     0.328840000000     0          
C236     C      0.000000000000     0.314200000000     0.233500000000     0          
O237     O      0.500000000000     0.906600000000     0.328840000000     0          
C238     C      0.500000000000     0.814200000000     0.233500000000     0          
O239     O      0.500000000000     0.406600000000     0.828840000000     0          
C240     C      0.500000000000     0.314200000000     0.733500000000     0          
C241     C      0.151520000000     0.151520000000     0.000000000000     0          
C242     C      0.202410000000     0.202410000000     0.000000000000     0          
C243     C      0.151520000000     0.651520000000     0.500000000000     0          
C244     C      0.202410000000     0.702410000000     0.500000000000     0          
C245     C      0.651520000000     0.151520000000     0.500000000000     0          
C246     C      0.702410000000     0.202410000000     0.500000000000     0          
C247     C      0.651520000000     0.651520000000     0.000000000000     0          
C248     C      0.702410000000     0.702410000000     0.000000000000     0          
C249     C      0.848480000000     0.848480000000     0.000000000000     0          
C250     C      0.797590000000     0.797590000000     0.000000000000     0          
C251     C      0.848480000000     0.348480000000     0.500000000000     0          
C252     C      0.797590000000     0.297590000000     0.500000000000     0          
C253     C      0.348480000000     0.848480000000     0.500000000000     0          
C254     C      0.297590000000     0.797590000000     0.500000000000     0          
C255     C      0.348480000000     0.348480000000     0.000000000000     0          
C256     C      0.297590000000     0.297590000000     0.000000000000     0          
C257     C      0.848480000000     0.151520000000     0.000000000000     0          
C258     C      0.797590000000     0.202410000000     0.000000000000     0          
C259     C      0.848480000000     0.651520000000     0.500000000000     0          
C260     C      0.797590000000     0.702410000000     0.500000000000     0          
C261     C      0.348480000000     0.151520000000     0.500000000000     0          
C262     C      0.297590000000     0.202410000000     0.500000000000     0          
C263     C      0.348480000000     0.651520000000     0.000000000000     0          
C264     C      0.297590000000     0.702410000000     0.000000000000     0          
C265     C      0.151520000000     0.848480000000     0.000000000000     0          
C266     C      0.202410000000     0.797590000000     0.000000000000     0          
C267     C      0.151520000000     0.348480000000     0.500000000000     0          
C268     C      0.202410000000     0.297590000000     0.500000000000     0          
C269     C      0.651520000000     0.848480000000     0.500000000000     0          
C270     C      0.702410000000     0.797590000000     0.500000000000     0          
C271     C      0.651520000000     0.348480000000     0.000000000000     0          
C272     C      0.702410000000     0.297590000000     0.000000000000     0          
C273     C      0.000000000000     0.151520000000     0.151520000000     0          
C274     C      0.000000000000     0.202410000000     0.202410000000     0          
C275     C      0.000000000000     0.651520000000     0.651520000000     0          
C276     C      0.000000000000     0.702410000000     0.702410000000     0          
C277     C      0.500000000000     0.151520000000     0.651520000000     0          
C278     C      0.500000000000     0.202410000000     0.702410000000     0          
C279     C      0.500000000000     0.651520000000     0.151520000000     0          
C280     C      0.500000000000     0.702410000000     0.202410000000     0          
C281     C      0.000000000000     0.848480000000     0.848480000000     0          
C282     C      0.000000000000     0.797590000000     0.797590000000     0          
C283     C      0.000000000000     0.348480000000     0.348480000000     0          
C284     C      0.000000000000     0.297590000000     0.297590000000     0          
C285     C      0.500000000000     0.848480000000     0.348480000000     0          
C286     C      0.500000000000     0.797590000000     0.297590000000     0          
C287     C      0.500000000000     0.348480000000     0.848480000000     0          
C288     C      0.500000000000     0.297590000000     0.797590000000     0          
C289     C      0.000000000000     0.848480000000     0.151520000000     0          
C290     C      0.000000000000     0.797590000000     0.202410000000     0          
C291     C      0.000000000000     0.348480000000     0.651520000000     0          
C292     C      0.000000000000     0.297590000000     0.702410000000     0          
C293     C      0.500000000000     0.848480000000     0.651520000000     0          
C294     C      0.500000000000     0.797590000000     0.702410000000     0          
C295     C      0.500000000000     0.348480000000     0.151520000000     0          
C296     C      0.500000000000     0.297590000000     0.202410000000     0          
C297     C      0.000000000000     0.151520000000     0.848480000000     0          
C298     C      0.000000000000     0.202410000000     0.797590000000     0          
C299     C      0.000000000000     0.651520000000     0.348480000000     0          
C300     C      0.000000000000     0.702410000000     0.297590000000     0          
C301     C      0.500000000000     0.151520000000     0.348480000000     0          
C302     C      0.500000000000     0.202410000000     0.297590000000     0          
C303     C      0.500000000000     0.651520000000     0.848480000000     0          
C304     C      0.500000000000     0.702410000000     0.797590000000     0          
C305     C      0.151520000000     0.000000000000     0.151520000000     0          
C306     C      0.202410000000     0.000000000000     0.202410000000     0          
C307     C      0.151520000000     0.500000000000     0.651520000000     0          
C308     C      0.202410000000     0.500000000000     0.702410000000     0          
C309     C      0.651520000000     0.000000000000     0.651520000000     0          
C310     C      0.702410000000     0.000000000000     0.702410000000     0          
C311     C      0.651520000000     0.500000000000     0.151520000000     0          
C312     C      0.702410000000     0.500000000000     0.202410000000     0          
C313     C      0.848480000000     0.000000000000     0.848480000000     0          
C314     C      0.797590000000     0.000000000000     0.797590000000     0          
C315     C      0.848480000000     0.500000000000     0.348480000000     0          
C316     C      0.797590000000     0.500000000000     0.297590000000     0          
C317     C      0.348480000000     0.000000000000     0.348480000000     0          
C318     C      0.297590000000     0.000000000000     0.297590000000     0          
C319     C      0.348480000000     0.500000000000     0.848480000000     0          
C320     C      0.297590000000     0.500000000000     0.797590000000     0          
C321     C      0.151520000000     0.000000000000     0.848480000000     0          
C322     C      0.202410000000     0.000000000000     0.797590000000     0          
C323     C      0.151520000000     0.500000000000     0.348480000000     0          
C324     C      0.202410000000     0.500000000000     0.297590000000     0          
C325     C      0.651520000000     0.000000000000     0.348480000000     0          
C326     C      0.702410000000     0.000000000000     0.297590000000     0          
C327     C      0.651520000000     0.500000000000     0.848480000000     0          
C328     C      0.702410000000     0.500000000000     0.797590000000     0          
C329     C      0.848480000000     0.000000000000     0.151520000000     0          
C330     C      0.797590000000     0.000000000000     0.202410000000     0          
C331     C      0.848480000000     0.500000000000     0.651520000000     0          
C332     C      0.797590000000     0.500000000000     0.702410000000     0          
C333     C      0.348480000000     0.000000000000     0.651520000000     0          
C334     C      0.297590000000     0.000000000000     0.702410000000     0          
C335     C      0.348480000000     0.500000000000     0.151520000000     0          
C336     C      0.297590000000     0.500000000000     0.202410000000     0          
O337     O      0.067490000000     0.067490000000     0.067490000000     0          
O338     O      0.067490000000     0.567490000000     0.567490000000     0          
O339     O      0.567490000000     0.067490000000     0.567490000000     0          
O340     O      0.567490000000     0.567490000000     0.067490000000     0          
O341     O      0.932510000000     0.932510000000     0.067490000000     0          
O342     O      0.932510000000     0.432510000000     0.567490000000     0          
O343     O      0.432510000000     0.932510000000     0.567490000000     0          
O344     O      0.432510000000     0.432510000000     0.067490000000     0          
O345     O      0.932510000000     0.067490000000     0.932510000000     0          
O346     O      0.932510000000     0.567490000000     0.432510000000     0          
O347     O      0.432510000000     0.067490000000     0.432510000000     0          
O348     O      0.432510000000     0.567490000000     0.932510000000     0          
O349     O      0.067490000000     0.932510000000     0.932510000000     0          
O350     O      0.067490000000     0.432510000000     0.432510000000     0          
O351     O      0.567490000000     0.932510000000     0.432510000000     0          
O352     O      0.567490000000     0.432510000000     0.932510000000     0          
O353     O      0.067490000000     0.067490000000     0.932510000000     0          
O354     O      0.067490000000     0.567490000000     0.432510000000     0          
O355     O      0.567490000000     0.067490000000     0.432510000000     0          
O356     O      0.567490000000     0.567490000000     0.932510000000     0          
O357     O      0.932510000000     0.932510000000     0.932510000000     0          
O358     O      0.932510000000     0.432510000000     0.432510000000     0          
O359     O      0.432510000000     0.932510000000     0.432510000000     0          
O360     O      0.432510000000     0.432510000000     0.932510000000     0          
O361     O      0.067490000000     0.932510000000     0.067490000000     0          
O362     O      0.067490000000     0.432510000000     0.567490000000     0          
O363     O      0.567490000000     0.932510000000     0.567490000000     0          
O364     O      0.567490000000     0.432510000000     0.067490000000     0          
O365     O      0.932510000000     0.067490000000     0.067490000000     0          
O366     O      0.932510000000     0.567490000000     0.567490000000     0          
O367     O      0.432510000000     0.067490000000     0.567490000000     0          
O368     O      0.432510000000     0.567490000000     0.067490000000     0          
H369     H      0.848480000000     0.151520000000     0.054890000000     0          
H370     H      0.848480000000     0.445110000000     0.348480000000     0          
H371     H      0.848480000000     0.945110000000     0.848480000000     0          
H372     H      0.281140000000     0.632900000000     0.500000000000     0          
H373     H      0.718860000000     0.867100000000     0.000000000000     0          
H374     H      0.718860000000     0.367100000000     0.500000000000     0          
H375     H      0.218860000000     0.367100000000     0.000000000000     0          
H376     H      0.718860000000     0.132900000000     0.000000000000     0          
H377     H      0.718860000000     0.632900000000     0.500000000000     0          
H378     H      0.218860000000     0.132900000000     0.500000000000     0          
H379     H      0.218860000000     0.632900000000     0.000000000000     0          
H380     H      0.281140000000     0.367100000000     0.500000000000     0          
H381     H      0.781140000000     0.367100000000     0.000000000000     0          
H382     H      0.000000000000     0.281140000000     0.132900000000     0          
H383     H      0.000000000000     0.781140000000     0.632900000000     0          
H384     H      0.500000000000     0.281140000000     0.632900000000     0          
H385     H      0.500000000000     0.781140000000     0.132900000000     0          
H386     H      0.000000000000     0.718860000000     0.867100000000     0          
H387     H      0.500000000000     0.718860000000     0.367100000000     0          
H388     H      0.500000000000     0.218860000000     0.867100000000     0          
H389     H      0.000000000000     0.718860000000     0.132900000000     0          
H390     H      0.000000000000     0.218860000000     0.632900000000     0          
H391     H      0.500000000000     0.718860000000     0.632900000000     0          
H392     H      0.500000000000     0.218860000000     0.132900000000     0          
H393     H      0.000000000000     0.281140000000     0.867100000000     0          
H394     H      0.000000000000     0.781140000000     0.367100000000     0          
H395     H      0.500000000000     0.281140000000     0.367100000000     0          
H396     H      0.500000000000     0.781140000000     0.867100000000     0          
H397     H      0.132900000000     0.000000000000     0.281140000000     0          
H398     H      0.132900000000     0.500000000000     0.781140000000     0          
H399     H      0.632900000000     0.000000000000     0.781140000000     0          
H400     H      0.632900000000     0.500000000000     0.281140000000     0          
H401     H      0.867100000000     0.000000000000     0.718860000000     0          
H402     H      0.867100000000     0.500000000000     0.218860000000     0          
H403     H      0.367100000000     0.000000000000     0.218860000000     0          
H404     H      0.367100000000     0.500000000000     0.718860000000     0          
H405     H      0.132900000000     0.000000000000     0.718860000000     0          
H406     H      0.132900000000     0.500000000000     0.218860000000     0          
H407     H      0.632900000000     0.000000000000     0.218860000000     0          
H408     H      0.632900000000     0.500000000000     0.718860000000     0          
H409     H      0.867100000000     0.000000000000     0.281140000000     0          
H410     H      0.367100000000     0.500000000000     0.281140000000     0          
H411     H      0.132900000000     0.281140000000     0.000000000000     0          
H412     H      0.132900000000     0.781140000000     0.500000000000     0          
H413     H      0.632900000000     0.281140000000     0.500000000000     0          
H414     H      0.632900000000     0.781140000000     0.000000000000     0          
H415     H      0.867100000000     0.718860000000     0.000000000000     0          
H416     H      0.867100000000     0.218860000000     0.500000000000     0          
H417     H      0.367100000000     0.718860000000     0.500000000000     0          
H418     H      0.367100000000     0.218860000000     0.000000000000     0          
H419     H      0.132900000000     0.718860000000     0.000000000000     0          
H420     H      0.132900000000     0.218860000000     0.500000000000     0          
H421     H      0.632900000000     0.718860000000     0.500000000000     0          
H422     H      0.867100000000     0.281140000000     0.000000000000     0          
H423     H      0.867100000000     0.781140000000     0.500000000000     0          
H424     H      0.367100000000     0.781140000000     0.000000000000     0          
H425     H      0.281140000000     0.000000000000     0.867100000000     0          
H426     H      0.781140000000     0.500000000000     0.867100000000     0          
H427     H      0.718860000000     0.000000000000     0.132900000000     0          
H428     H      0.718860000000     0.500000000000     0.632900000000     0          
H429     H      0.218860000000     0.000000000000     0.632900000000     0          
H430     H      0.218860000000     0.500000000000     0.132900000000     0          
H431     H      0.718860000000     0.000000000000     0.867100000000     0          
H432     H      0.218860000000     0.500000000000     0.867100000000     0          
H433     H      0.281140000000     0.000000000000     0.132900000000     0          
H434     H      0.781140000000     0.500000000000     0.132900000000     0          
H435     H      0.500000000000     0.632900000000     0.718860000000     0          
H436     H      0.000000000000     0.867100000000     0.281140000000     0          
H437     H      0.000000000000     0.367100000000     0.781140000000     0          
H438     H      0.500000000000     0.367100000000     0.281140000000     0          
H439     H      0.000000000000     0.132900000000     0.281140000000     0          
H440     H      0.000000000000     0.632900000000     0.781140000000     0          
H441     H      0.000000000000     0.367100000000     0.218860000000     0          
H442     H      0.500000000000     0.867100000000     0.218860000000     0          
H443     H      0.500000000000     0.367100000000     0.718860000000     0          


