data_SURKUN

_audit_creation_method RASPA-1.0
_audit_creation_date 2020-11-2
_audit_author_name 'Rocio Bueno-Perez'

_cell_length_a    20.757
_cell_length_b    20.757
_cell_length_c    20.757
_cell_angle_alpha 90
_cell_angle_beta  90
_cell_angle_gamma 90
_cell_volume      8943.22

_symmetry_cell_setting          cubic
_symmetry_space_group_name_Hall 'P 1'
_symmetry_space_group_name_H-M  'P 1'
_symmetry_Int_Tables_number     1

_symmetry_equiv_pos_as_xyz 'x,y,z'

loop_
_atom_site_label
_atom_site_type_symbol
_atom_site_fract_x
_atom_site_fract_y
_atom_site_fract_z
_atom_site_charge
Zr1      Zr     0.119360000000     0.000000000000     0.000000000000     0          
O1       O      0.170350000000     0.094110000000     0.000000000000     0          
C3       C      0.266300000000     0.186300000000     0.000000000000     0          
H1       H      0.278300000000     0.142100000000     0.000000000000     0          
C1       C      0.151800000000     0.151800000000     0.000000000000     0          
C2       C      0.202800000000     0.202800000000     0.000000000000     0          
O4?      O      0.050900000000     0.050900000000     0.050900000000     0          
Zr1      Zr     0.000000000000     0.119360000000     0.000000000000     0          
O1       O      0.905890000000     0.170350000000     0.000000000000     0          
C3       C      0.813700000000     0.266300000000     0.000000000000     0          
H1       H      0.857900000000     0.278300000000     0.000000000000     0          
C1       C      0.848200000000     0.151800000000     0.000000000000     0          
C2       C      0.797200000000     0.202800000000     0.000000000000     0          
O4?      O      0.949100000000     0.050900000000     0.050900000000     0          
Zr1      Zr     0.880640000000     0.000000000000     0.000000000000     0          
O1       O      0.829650000000     0.905890000000     0.000000000000     0          
C3       C      0.733700000000     0.813700000000     0.000000000000     0          
H1       H      0.721700000000     0.857900000000     0.000000000000     0          
C1       C      0.848200000000     0.848200000000     0.000000000000     0          
C2       C      0.797200000000     0.797200000000     0.000000000000     0          
O4?      O      0.949100000000     0.949100000000     0.050900000000     0          
Zr1      Zr     0.000000000000     0.880640000000     0.000000000000     0          
O1       O      0.094110000000     0.829650000000     0.000000000000     0          
C3       C      0.186300000000     0.733700000000     0.000000000000     0          
H1       H      0.142100000000     0.721700000000     0.000000000000     0          
C1       C      0.151800000000     0.848200000000     0.000000000000     0          
C2       C      0.202800000000     0.797200000000     0.000000000000     0          
O4?      O      0.050900000000     0.949100000000     0.050900000000     0          
O1       O      0.170350000000     0.905890000000     0.000000000000     0          
C3       C      0.266300000000     0.813700000000     0.000000000000     0          
H1       H      0.278300000000     0.857900000000     0.000000000000     0          
O4?      O      0.050900000000     0.949100000000     0.949100000000     0          
O1       O      0.094110000000     0.170350000000     0.000000000000     0          
C3       C      0.186300000000     0.266300000000     0.000000000000     0          
H1       H      0.142100000000     0.278300000000     0.000000000000     0          
O4?      O      0.050900000000     0.050900000000     0.949100000000     0          
O1       O      0.829650000000     0.094110000000     0.000000000000     0          
C3       C      0.733700000000     0.186300000000     0.000000000000     0          
H1       H      0.721700000000     0.142100000000     0.000000000000     0          
O4?      O      0.949100000000     0.050900000000     0.949100000000     0          
O1       O      0.905890000000     0.829650000000     0.000000000000     0          
C3       C      0.813700000000     0.733700000000     0.000000000000     0          
H1       H      0.857900000000     0.721700000000     0.000000000000     0          
O4?      O      0.949100000000     0.949100000000     0.949100000000     0          
O1       O      0.000000000000     0.170350000000     0.094110000000     0          
C3       C      0.000000000000     0.266300000000     0.186300000000     0          
H1       H      0.000000000000     0.278300000000     0.142100000000     0          
C1       C      0.000000000000     0.151800000000     0.151800000000     0          
C2       C      0.000000000000     0.202800000000     0.202800000000     0          
O1       O      0.829650000000     0.000000000000     0.094110000000     0          
C3       C      0.733700000000     0.000000000000     0.186300000000     0          
H1       H      0.721700000000     0.000000000000     0.142100000000     0          
C1       C      0.848200000000     0.000000000000     0.151800000000     0          
C2       C      0.797200000000     0.000000000000     0.202800000000     0          
O1       O      0.000000000000     0.829650000000     0.094110000000     0          
C3       C      0.000000000000     0.733700000000     0.186300000000     0          
H1       H      0.000000000000     0.721700000000     0.142100000000     0          
C1       C      0.000000000000     0.848200000000     0.151800000000     0          
C2       C      0.000000000000     0.797200000000     0.202800000000     0          
O1       O      0.170350000000     0.000000000000     0.094110000000     0          
C3       C      0.266300000000     0.000000000000     0.186300000000     0          
H1       H      0.278300000000     0.000000000000     0.142100000000     0          
C1       C      0.151800000000     0.000000000000     0.151800000000     0          
C2       C      0.202800000000     0.000000000000     0.202800000000     0          
O1       O      0.000000000000     0.829650000000     0.905890000000     0          
C3       C      0.000000000000     0.733700000000     0.813700000000     0          
H1       H      0.000000000000     0.721700000000     0.857900000000     0          
C1       C      0.000000000000     0.848200000000     0.848200000000     0          
C2       C      0.000000000000     0.797200000000     0.797200000000     0          
O1       O      0.170350000000     0.000000000000     0.905890000000     0          
C3       C      0.266300000000     0.000000000000     0.813700000000     0          
H1       H      0.278300000000     0.000000000000     0.857900000000     0          
C1       C      0.151800000000     0.000000000000     0.848200000000     0          
C2       C      0.202800000000     0.000000000000     0.797200000000     0          
O1       O      0.000000000000     0.170350000000     0.905890000000     0          
C3       C      0.000000000000     0.266300000000     0.813700000000     0          
H1       H      0.000000000000     0.278300000000     0.857900000000     0          
C1       C      0.000000000000     0.151800000000     0.848200000000     0          
C2       C      0.000000000000     0.202800000000     0.797200000000     0          
O1       O      0.829650000000     0.000000000000     0.905890000000     0          
C3       C      0.733700000000     0.000000000000     0.813700000000     0          
H1       H      0.721700000000     0.000000000000     0.857900000000     0          
C1       C      0.848200000000     0.000000000000     0.848200000000     0          
C2       C      0.797200000000     0.000000000000     0.797200000000     0          
Zr1      Zr     0.000000000000     0.000000000000     0.119360000000     0          
O1       O      0.094110000000     0.000000000000     0.170350000000     0          
C3       C      0.186300000000     0.000000000000     0.266300000000     0          
H1       H      0.142100000000     0.000000000000     0.278300000000     0          
Zr1      Zr     0.000000000000     0.000000000000     0.880640000000     0          
O1       O      0.094110000000     0.000000000000     0.829650000000     0          
C3       C      0.186300000000     0.000000000000     0.733700000000     0          
H1       H      0.142100000000     0.000000000000     0.721700000000     0          
O1       O      0.000000000000     0.094110000000     0.829650000000     0          
C3       C      0.000000000000     0.186300000000     0.733700000000     0          
H1       H      0.000000000000     0.142100000000     0.721700000000     0          
O1       O      0.905890000000     0.000000000000     0.829650000000     0          
C3       C      0.813700000000     0.000000000000     0.733700000000     0          
H1       H      0.857900000000     0.000000000000     0.721700000000     0          
O1       O      0.000000000000     0.905890000000     0.829650000000     0          
C3       C      0.000000000000     0.813700000000     0.733700000000     0          
H1       H      0.000000000000     0.857900000000     0.721700000000     0          
O1       O      0.905890000000     0.000000000000     0.170350000000     0          
C3       C      0.813700000000     0.000000000000     0.266300000000     0          
H1       H      0.857900000000     0.000000000000     0.278300000000     0          
O1       O      0.000000000000     0.905890000000     0.170350000000     0          
C3       C      0.000000000000     0.813700000000     0.266300000000     0          
H1       H      0.000000000000     0.857900000000     0.278300000000     0          
O1       O      0.000000000000     0.094110000000     0.170350000000     0          
C3       C      0.000000000000     0.186300000000     0.266300000000     0          
H1       H      0.000000000000     0.142100000000     0.278300000000     0          
Zr1      Zr     0.119360000000     0.500000000000     0.500000000000     0          
O1       O      0.170350000000     0.594110000000     0.500000000000     0          
C3       C      0.266300000000     0.686300000000     0.500000000000     0          
H1       H      0.278300000000     0.642100000000     0.500000000000     0          
C1       C      0.151800000000     0.651800000000     0.500000000000     0          
C2       C      0.202800000000     0.702800000000     0.500000000000     0          
O4?      O      0.050900000000     0.550900000000     0.550900000000     0          
Zr1      Zr     0.000000000000     0.619360000000     0.500000000000     0          
O1       O      0.905890000000     0.670350000000     0.500000000000     0          
C3       C      0.813700000000     0.766300000000     0.500000000000     0          
H1       H      0.857900000000     0.778300000000     0.500000000000     0          
C1       C      0.848200000000     0.651800000000     0.500000000000     0          
C2       C      0.797200000000     0.702800000000     0.500000000000     0          
O4?      O      0.949100000000     0.550900000000     0.550900000000     0          
Zr1      Zr     0.880640000000     0.500000000000     0.500000000000     0          
O1       O      0.829650000000     0.405890000000     0.500000000000     0          
C3       C      0.733700000000     0.313700000000     0.500000000000     0          
H1       H      0.721700000000     0.357900000000     0.500000000000     0          
C1       C      0.848200000000     0.348200000000     0.500000000000     0          
C2       C      0.797200000000     0.297200000000     0.500000000000     0          
O4?      O      0.949100000000     0.449100000000     0.550900000000     0          
Zr1      Zr     0.000000000000     0.380640000000     0.500000000000     0          
O1       O      0.094110000000     0.329650000000     0.500000000000     0          
C3       C      0.186300000000     0.233700000000     0.500000000000     0          
H1       H      0.142100000000     0.221700000000     0.500000000000     0          
C1       C      0.151800000000     0.348200000000     0.500000000000     0          
C2       C      0.202800000000     0.297200000000     0.500000000000     0          
O4?      O      0.050900000000     0.449100000000     0.550900000000     0          
O1       O      0.170350000000     0.405890000000     0.500000000000     0          
C3       C      0.266300000000     0.313700000000     0.500000000000     0          
H1       H      0.278300000000     0.357900000000     0.500000000000     0          
O4?      O      0.050900000000     0.449100000000     0.449100000000     0          
O1       O      0.094110000000     0.670350000000     0.500000000000     0          
C3       C      0.186300000000     0.766300000000     0.500000000000     0          
H1       H      0.142100000000     0.778300000000     0.500000000000     0          
O4?      O      0.050900000000     0.550900000000     0.449100000000     0          
O1       O      0.829650000000     0.594110000000     0.500000000000     0          
C3       C      0.733700000000     0.686300000000     0.500000000000     0          
H1       H      0.721700000000     0.642100000000     0.500000000000     0          
O4?      O      0.949100000000     0.550900000000     0.449100000000     0          
O1       O      0.905890000000     0.329650000000     0.500000000000     0          
C3       C      0.813700000000     0.233700000000     0.500000000000     0          
H1       H      0.857900000000     0.221700000000     0.500000000000     0          
O4?      O      0.949100000000     0.449100000000     0.449100000000     0          
O1       O      0.000000000000     0.670350000000     0.594110000000     0          
C3       C      0.000000000000     0.766300000000     0.686300000000     0          
H1       H      0.000000000000     0.778300000000     0.642100000000     0          
C1       C      0.000000000000     0.651800000000     0.651800000000     0          
C2       C      0.000000000000     0.702800000000     0.702800000000     0          
O1       O      0.829650000000     0.500000000000     0.594110000000     0          
C3       C      0.733700000000     0.500000000000     0.686300000000     0          
H1       H      0.721700000000     0.500000000000     0.642100000000     0          
C1       C      0.848200000000     0.500000000000     0.651800000000     0          
C2       C      0.797200000000     0.500000000000     0.702800000000     0          
O1       O      0.000000000000     0.329650000000     0.594110000000     0          
C3       C      0.000000000000     0.233700000000     0.686300000000     0          
H1       H      0.000000000000     0.221700000000     0.642100000000     0          
C1       C      0.000000000000     0.348200000000     0.651800000000     0          
C2       C      0.000000000000     0.297200000000     0.702800000000     0          
O1       O      0.170350000000     0.500000000000     0.594110000000     0          
C3       C      0.266300000000     0.500000000000     0.686300000000     0          
H1       H      0.278300000000     0.500000000000     0.642100000000     0          
C1       C      0.151800000000     0.500000000000     0.651800000000     0          
C2       C      0.202800000000     0.500000000000     0.702800000000     0          
O1       O      0.000000000000     0.329650000000     0.405890000000     0          
C3       C      0.000000000000     0.233700000000     0.313700000000     0          
H1       H      0.000000000000     0.221700000000     0.357900000000     0          
C1       C      0.000000000000     0.348200000000     0.348200000000     0          
C2       C      0.000000000000     0.297200000000     0.297200000000     0          
O1       O      0.170350000000     0.500000000000     0.405890000000     0          
C3       C      0.266300000000     0.500000000000     0.313700000000     0          
H1       H      0.278300000000     0.500000000000     0.357900000000     0          
C1       C      0.151800000000     0.500000000000     0.348200000000     0          
C2       C      0.202800000000     0.500000000000     0.297200000000     0          
O1       O      0.000000000000     0.670350000000     0.405890000000     0          
C3       C      0.000000000000     0.766300000000     0.313700000000     0          
H1       H      0.000000000000     0.778300000000     0.357900000000     0          
C1       C      0.000000000000     0.651800000000     0.348200000000     0          
C2       C      0.000000000000     0.702800000000     0.297200000000     0          
O1       O      0.829650000000     0.500000000000     0.405890000000     0          
C3       C      0.733700000000     0.500000000000     0.313700000000     0          
H1       H      0.721700000000     0.500000000000     0.357900000000     0          
C1       C      0.848200000000     0.500000000000     0.348200000000     0          
C2       C      0.797200000000     0.500000000000     0.297200000000     0          
Zr1      Zr     0.000000000000     0.500000000000     0.619360000000     0          
O1       O      0.094110000000     0.500000000000     0.670350000000     0          
C3       C      0.186300000000     0.500000000000     0.766300000000     0          
H1       H      0.142100000000     0.500000000000     0.778300000000     0          
Zr1      Zr     0.000000000000     0.500000000000     0.380640000000     0          
O1       O      0.094110000000     0.500000000000     0.329650000000     0          
C3       C      0.186300000000     0.500000000000     0.233700000000     0          
H1       H      0.142100000000     0.500000000000     0.221700000000     0          
O1       O      0.000000000000     0.594110000000     0.329650000000     0          
C3       C      0.000000000000     0.686300000000     0.233700000000     0          
H1       H      0.000000000000     0.642100000000     0.221700000000     0          
O1       O      0.905890000000     0.500000000000     0.329650000000     0          
C3       C      0.813700000000     0.500000000000     0.233700000000     0          
H1       H      0.857900000000     0.500000000000     0.221700000000     0          
O1       O      0.000000000000     0.405890000000     0.329650000000     0          
C3       C      0.000000000000     0.313700000000     0.233700000000     0          
H1       H      0.000000000000     0.357900000000     0.221700000000     0          
O1       O      0.905890000000     0.500000000000     0.670350000000     0          
C3       C      0.813700000000     0.500000000000     0.766300000000     0          
H1       H      0.857900000000     0.500000000000     0.778300000000     0          
O1       O      0.000000000000     0.405890000000     0.670350000000     0          
C3       C      0.000000000000     0.313700000000     0.766300000000     0          
H1       H      0.000000000000     0.357900000000     0.778300000000     0          
O1       O      0.000000000000     0.594110000000     0.670350000000     0          
C3       C      0.000000000000     0.686300000000     0.766300000000     0          
H1       H      0.000000000000     0.642100000000     0.778300000000     0          
Zr1      Zr     0.619360000000     0.000000000000     0.500000000000     0          
O1       O      0.670350000000     0.094110000000     0.500000000000     0          
C3       C      0.766300000000     0.186300000000     0.500000000000     0          
H1       H      0.778300000000     0.142100000000     0.500000000000     0          
C1       C      0.651800000000     0.151800000000     0.500000000000     0          
C2       C      0.702800000000     0.202800000000     0.500000000000     0          
O4?      O      0.550900000000     0.050900000000     0.550900000000     0          
Zr1      Zr     0.500000000000     0.119360000000     0.500000000000     0          
O1       O      0.405890000000     0.170350000000     0.500000000000     0          
C3       C      0.313700000000     0.266300000000     0.500000000000     0          
H1       H      0.357900000000     0.278300000000     0.500000000000     0          
C1       C      0.348200000000     0.151800000000     0.500000000000     0          
C2       C      0.297200000000     0.202800000000     0.500000000000     0          
O4?      O      0.449100000000     0.050900000000     0.550900000000     0          
Zr1      Zr     0.380640000000     0.000000000000     0.500000000000     0          
O1       O      0.329650000000     0.905890000000     0.500000000000     0          
C3       C      0.233700000000     0.813700000000     0.500000000000     0          
H1       H      0.221700000000     0.857900000000     0.500000000000     0          
C1       C      0.348200000000     0.848200000000     0.500000000000     0          
C2       C      0.297200000000     0.797200000000     0.500000000000     0          
O4?      O      0.449100000000     0.949100000000     0.550900000000     0          
Zr1      Zr     0.500000000000     0.880640000000     0.500000000000     0          
O1       O      0.594110000000     0.829650000000     0.500000000000     0          
C3       C      0.686300000000     0.733700000000     0.500000000000     0          
H1       H      0.642100000000     0.721700000000     0.500000000000     0          
C1       C      0.651800000000     0.848200000000     0.500000000000     0          
C2       C      0.702800000000     0.797200000000     0.500000000000     0          
O4?      O      0.550900000000     0.949100000000     0.550900000000     0          
O1       O      0.670350000000     0.905890000000     0.500000000000     0          
C3       C      0.766300000000     0.813700000000     0.500000000000     0          
H1       H      0.778300000000     0.857900000000     0.500000000000     0          
O4?      O      0.550900000000     0.949100000000     0.449100000000     0          
O1       O      0.594110000000     0.170350000000     0.500000000000     0          
C3       C      0.686300000000     0.266300000000     0.500000000000     0          
H1       H      0.642100000000     0.278300000000     0.500000000000     0          
O4?      O      0.550900000000     0.050900000000     0.449100000000     0          
O1       O      0.329650000000     0.094110000000     0.500000000000     0          
C3       C      0.233700000000     0.186300000000     0.500000000000     0          
H1       H      0.221700000000     0.142100000000     0.500000000000     0          
O4?      O      0.449100000000     0.050900000000     0.449100000000     0          
O1       O      0.405890000000     0.829650000000     0.500000000000     0          
C3       C      0.313700000000     0.733700000000     0.500000000000     0          
H1       H      0.357900000000     0.721700000000     0.500000000000     0          
O4?      O      0.449100000000     0.949100000000     0.449100000000     0          
O1       O      0.500000000000     0.170350000000     0.594110000000     0          
C3       C      0.500000000000     0.266300000000     0.686300000000     0          
H1       H      0.500000000000     0.278300000000     0.642100000000     0          
C1       C      0.500000000000     0.151800000000     0.651800000000     0          
C2       C      0.500000000000     0.202800000000     0.702800000000     0          
O1       O      0.329650000000     0.000000000000     0.594110000000     0          
C3       C      0.233700000000     0.000000000000     0.686300000000     0          
H1       H      0.221700000000     0.000000000000     0.642100000000     0          
C1       C      0.348200000000     0.000000000000     0.651800000000     0          
C2       C      0.297200000000     0.000000000000     0.702800000000     0          
O1       O      0.500000000000     0.829650000000     0.594110000000     0          
C3       C      0.500000000000     0.733700000000     0.686300000000     0          
H1       H      0.500000000000     0.721700000000     0.642100000000     0          
C1       C      0.500000000000     0.848200000000     0.651800000000     0          
C2       C      0.500000000000     0.797200000000     0.702800000000     0          
O1       O      0.670350000000     0.000000000000     0.594110000000     0          
C3       C      0.766300000000     0.000000000000     0.686300000000     0          
H1       H      0.778300000000     0.000000000000     0.642100000000     0          
C1       C      0.651800000000     0.000000000000     0.651800000000     0          
C2       C      0.702800000000     0.000000000000     0.702800000000     0          
O1       O      0.500000000000     0.829650000000     0.405890000000     0          
C3       C      0.500000000000     0.733700000000     0.313700000000     0          
H1       H      0.500000000000     0.721700000000     0.357900000000     0          
C1       C      0.500000000000     0.848200000000     0.348200000000     0          
C2       C      0.500000000000     0.797200000000     0.297200000000     0          
O1       O      0.670350000000     0.000000000000     0.405890000000     0          
C3       C      0.766300000000     0.000000000000     0.313700000000     0          
H1       H      0.778300000000     0.000000000000     0.357900000000     0          
C1       C      0.651800000000     0.000000000000     0.348200000000     0          
C2       C      0.702800000000     0.000000000000     0.297200000000     0          
O1       O      0.500000000000     0.170350000000     0.405890000000     0          
C3       C      0.500000000000     0.266300000000     0.313700000000     0          
H1       H      0.500000000000     0.278300000000     0.357900000000     0          
C1       C      0.500000000000     0.151800000000     0.348200000000     0          
C2       C      0.500000000000     0.202800000000     0.297200000000     0          
O1       O      0.329650000000     0.000000000000     0.405890000000     0          
C3       C      0.233700000000     0.000000000000     0.313700000000     0          
H1       H      0.221700000000     0.000000000000     0.357900000000     0          
C1       C      0.348200000000     0.000000000000     0.348200000000     0          
C2       C      0.297200000000     0.000000000000     0.297200000000     0          
Zr1      Zr     0.500000000000     0.000000000000     0.619360000000     0          
O1       O      0.594110000000     0.000000000000     0.670350000000     0          
C3       C      0.686300000000     0.000000000000     0.766300000000     0          
H1       H      0.642100000000     0.000000000000     0.778300000000     0          
Zr1      Zr     0.500000000000     0.000000000000     0.380640000000     0          
O1       O      0.594110000000     0.000000000000     0.329650000000     0          
C3       C      0.686300000000     0.000000000000     0.233700000000     0          
H1       H      0.642100000000     0.000000000000     0.221700000000     0          
O1       O      0.500000000000     0.094110000000     0.329650000000     0          
C3       C      0.500000000000     0.186300000000     0.233700000000     0          
H1       H      0.500000000000     0.142100000000     0.221700000000     0          
O1       O      0.405890000000     0.000000000000     0.329650000000     0          
C3       C      0.313700000000     0.000000000000     0.233700000000     0          
H1       H      0.357900000000     0.000000000000     0.221700000000     0          
O1       O      0.500000000000     0.905890000000     0.329650000000     0          
C3       C      0.500000000000     0.813700000000     0.233700000000     0          
H1       H      0.500000000000     0.857900000000     0.221700000000     0          
O1       O      0.405890000000     0.000000000000     0.670350000000     0          
C3       C      0.313700000000     0.000000000000     0.766300000000     0          
H1       H      0.357900000000     0.000000000000     0.778300000000     0          
O1       O      0.500000000000     0.905890000000     0.670350000000     0          
C3       C      0.500000000000     0.813700000000     0.766300000000     0          
H1       H      0.500000000000     0.857900000000     0.778300000000     0          
O1       O      0.500000000000     0.094110000000     0.670350000000     0          
C3       C      0.500000000000     0.186300000000     0.766300000000     0          
H1       H      0.500000000000     0.142100000000     0.778300000000     0          
Zr1      Zr     0.619360000000     0.500000000000     0.000000000000     0          
O1       O      0.670350000000     0.594110000000     0.000000000000     0          
C3       C      0.766300000000     0.686300000000     0.000000000000     0          
H1       H      0.778300000000     0.642100000000     0.000000000000     0          
C1       C      0.651800000000     0.651800000000     0.000000000000     0          
C2       C      0.702800000000     0.702800000000     0.000000000000     0          
O4?      O      0.550900000000     0.550900000000     0.050900000000     0          
Zr1      Zr     0.500000000000     0.619360000000     0.000000000000     0          
O1       O      0.405890000000     0.670350000000     0.000000000000     0          
C3       C      0.313700000000     0.766300000000     0.000000000000     0          
H1       H      0.357900000000     0.778300000000     0.000000000000     0          
C1       C      0.348200000000     0.651800000000     0.000000000000     0          
C2       C      0.297200000000     0.702800000000     0.000000000000     0          
O4?      O      0.449100000000     0.550900000000     0.050900000000     0          
Zr1      Zr     0.380640000000     0.500000000000     0.000000000000     0          
O1       O      0.329650000000     0.405890000000     0.000000000000     0          
C3       C      0.233700000000     0.313700000000     0.000000000000     0          
H1       H      0.221700000000     0.357900000000     0.000000000000     0          
C1       C      0.348200000000     0.348200000000     0.000000000000     0          
C2       C      0.297200000000     0.297200000000     0.000000000000     0          
O4?      O      0.449100000000     0.449100000000     0.050900000000     0          
Zr1      Zr     0.500000000000     0.380640000000     0.000000000000     0          
O1       O      0.594110000000     0.329650000000     0.000000000000     0          
C3       C      0.686300000000     0.233700000000     0.000000000000     0          
H1       H      0.642100000000     0.221700000000     0.000000000000     0          
C1       C      0.651800000000     0.348200000000     0.000000000000     0          
C2       C      0.702800000000     0.297200000000     0.000000000000     0          
O4?      O      0.550900000000     0.449100000000     0.050900000000     0          
O1       O      0.670350000000     0.405890000000     0.000000000000     0          
C3       C      0.766300000000     0.313700000000     0.000000000000     0          
H1       H      0.778300000000     0.357900000000     0.000000000000     0          
O4?      O      0.550900000000     0.449100000000     0.949100000000     0          
O1       O      0.594110000000     0.670350000000     0.000000000000     0          
C3       C      0.686300000000     0.766300000000     0.000000000000     0          
H1       H      0.642100000000     0.778300000000     0.000000000000     0          
O4?      O      0.550900000000     0.550900000000     0.949100000000     0          
O1       O      0.329650000000     0.594110000000     0.000000000000     0          
C3       C      0.233700000000     0.686300000000     0.000000000000     0          
H1       H      0.221700000000     0.642100000000     0.000000000000     0          
O4?      O      0.449100000000     0.550900000000     0.949100000000     0          
O1       O      0.405890000000     0.329650000000     0.000000000000     0          
C3       C      0.313700000000     0.233700000000     0.000000000000     0          
H1       H      0.357900000000     0.221700000000     0.000000000000     0          
O4?      O      0.449100000000     0.449100000000     0.949100000000     0          
O1       O      0.500000000000     0.670350000000     0.094110000000     0          
C3       C      0.500000000000     0.766300000000     0.186300000000     0          
H1       H      0.500000000000     0.778300000000     0.142100000000     0          
C1       C      0.500000000000     0.651800000000     0.151800000000     0          
C2       C      0.500000000000     0.702800000000     0.202800000000     0          
O1       O      0.329650000000     0.500000000000     0.094110000000     0          
C3       C      0.233700000000     0.500000000000     0.186300000000     0          
H1       H      0.221700000000     0.500000000000     0.142100000000     0          
C1       C      0.348200000000     0.500000000000     0.151800000000     0          
C2       C      0.297200000000     0.500000000000     0.202800000000     0          
O1       O      0.500000000000     0.329650000000     0.094110000000     0          
C3       C      0.500000000000     0.233700000000     0.186300000000     0          
H1       H      0.500000000000     0.221700000000     0.142100000000     0          
C1       C      0.500000000000     0.348200000000     0.151800000000     0          
C2       C      0.500000000000     0.297200000000     0.202800000000     0          
O1       O      0.670350000000     0.500000000000     0.094110000000     0          
C3       C      0.766300000000     0.500000000000     0.186300000000     0          
H1       H      0.778300000000     0.500000000000     0.142100000000     0          
C1       C      0.651800000000     0.500000000000     0.151800000000     0          
C2       C      0.702800000000     0.500000000000     0.202800000000     0          
O1       O      0.500000000000     0.329650000000     0.905890000000     0          
C3       C      0.500000000000     0.233700000000     0.813700000000     0          
H1       H      0.500000000000     0.221700000000     0.857900000000     0          
C1       C      0.500000000000     0.348200000000     0.848200000000     0          
C2       C      0.500000000000     0.297200000000     0.797200000000     0          
O1       O      0.670350000000     0.500000000000     0.905890000000     0          
C3       C      0.766300000000     0.500000000000     0.813700000000     0          
H1       H      0.778300000000     0.500000000000     0.857900000000     0          
C1       C      0.651800000000     0.500000000000     0.848200000000     0          
C2       C      0.702800000000     0.500000000000     0.797200000000     0          
O1       O      0.500000000000     0.670350000000     0.905890000000     0          
C3       C      0.500000000000     0.766300000000     0.813700000000     0          
H1       H      0.500000000000     0.778300000000     0.857900000000     0          
C1       C      0.500000000000     0.651800000000     0.848200000000     0          
C2       C      0.500000000000     0.702800000000     0.797200000000     0          
O1       O      0.329650000000     0.500000000000     0.905890000000     0          
C3       C      0.233700000000     0.500000000000     0.813700000000     0          
H1       H      0.221700000000     0.500000000000     0.857900000000     0          
C1       C      0.348200000000     0.500000000000     0.848200000000     0          
C2       C      0.297200000000     0.500000000000     0.797200000000     0          
Zr1      Zr     0.500000000000     0.500000000000     0.119360000000     0          
O1       O      0.594110000000     0.500000000000     0.170350000000     0          
C3       C      0.686300000000     0.500000000000     0.266300000000     0          
H1       H      0.642100000000     0.500000000000     0.278300000000     0          
Zr1      Zr     0.500000000000     0.500000000000     0.880640000000     0          
O1       O      0.594110000000     0.500000000000     0.829650000000     0          
C3       C      0.686300000000     0.500000000000     0.733700000000     0          
H1       H      0.642100000000     0.500000000000     0.721700000000     0          
O1       O      0.500000000000     0.594110000000     0.829650000000     0          
C3       C      0.500000000000     0.686300000000     0.733700000000     0          
H1       H      0.500000000000     0.642100000000     0.721700000000     0          
O1       O      0.405890000000     0.500000000000     0.829650000000     0          
C3       C      0.313700000000     0.500000000000     0.733700000000     0          
H1       H      0.357900000000     0.500000000000     0.721700000000     0          
O1       O      0.500000000000     0.405890000000     0.829650000000     0          
C3       C      0.500000000000     0.313700000000     0.733700000000     0          
H1       H      0.500000000000     0.357900000000     0.721700000000     0          
O1       O      0.405890000000     0.500000000000     0.170350000000     0          
C3       C      0.313700000000     0.500000000000     0.266300000000     0          
H1       H      0.357900000000     0.500000000000     0.278300000000     0          
O1       O      0.500000000000     0.405890000000     0.170350000000     0          
C3       C      0.500000000000     0.313700000000     0.266300000000     0          
H1       H      0.500000000000     0.357900000000     0.278300000000     0          
O1       O      0.500000000000     0.594110000000     0.170350000000     0          
C3       C      0.500000000000     0.686300000000     0.266300000000     0          
H1       H      0.500000000000     0.642100000000     0.278300000000     0          


