data_TAXGAD

_audit_creation_method RASPA-1.0
_audit_creation_date 2020-11-2
_audit_author_name 'Rocio Bueno-Perez'

_cell_length_a    23.1271
_cell_length_b    23.1271
_cell_length_c    18.7459
_cell_angle_alpha 90
_cell_angle_beta  90
_cell_angle_gamma 90
_cell_volume      10026.5

_symmetry_cell_setting          triclinic
_symmetry_space_group_name_Hall 'P 1'
_symmetry_space_group_name_H-M  'P 1'
_symmetry_Int_Tables_number     1

_symmetry_equiv_pos_as_xyz 'x,y,z'

loop_
_atom_site_label
_atom_site_type_symbol
_atom_site_fract_x
_atom_site_fract_y
_atom_site_fract_z
_atom_site_charge
O1       O      0.390400000000     0.081600000000     0.136600000000     0          
O2       O      0.441500000000     0.156800000000     0.072100000000     0          
C4       C      0.298800000000     0.259700000000     0.229300000000     0          
C5       C      0.333500000000     0.275700000000     0.172700000000     0          
C6       C      0.368000000000     0.236600000000     0.134900000000     0          
H7       H      0.390300000000     0.248500000000     0.095000000000     0          
C8       C      0.368500000000     0.180100000000     0.158000000000     0          
C9       C      0.335500000000     0.161800000000     0.215700000000     0          
H10      H      0.335500000000     0.122600000000     0.230700000000     0          
C11      C      0.301600000000     0.204700000000     0.251700000000     0          
C12      C      0.402700000000     0.135600000000     0.118900000000     0          
F17      F      0.282000000000     0.216500000000     0.381300000000     0          
F18      F      0.215300000000     0.173500000000     0.318000000000     0          
F19      F      0.294300000000     0.128600000000     0.344300000000     0          
H20      H      0.333900000000     0.315200000000     0.158700000000     0          
C22      C      0.275000000000     0.183300000000     0.319700000000     0          
O24      O      0.609600000000     0.918400000000     0.136600000000     0          
O25      O      0.558500000000     0.843200000000     0.072100000000     0          
O26      O      0.951900000000     0.853700000000     0.045400000000     0          
C27      C      0.701200000000     0.740300000000     0.229300000000     0          
C28      C      0.666500000000     0.724300000000     0.172700000000     0          
C29      C      0.632000000000     0.763400000000     0.134900000000     0          
H30      H      0.609700000000     0.751500000000     0.095000000000     0          
C31      C      0.631500000000     0.819900000000     0.158000000000     0          
C32      C      0.664500000000     0.838200000000     0.215700000000     0          
H33      H      0.664500000000     0.877400000000     0.230700000000     0          
C34      C      0.698400000000     0.795300000000     0.251700000000     0          
C35      C      0.597300000000     0.864400000000     0.118900000000     0          
C36      C      0.969770000000     0.956900000000     0.036100000000     0          
C37      C      0.940200000000     0.908700000000     0.076300000000     0          
H38      H      0.953500000000     0.908800000000     0.126500000000     0          
H39      H      0.897900000000     0.915500000000     0.076300000000     0          
F40      F      0.718000000000     0.783500000000     0.381300000000     0          
F41      F      0.784700000000     0.826500000000     0.318000000000     0          
F42      F      0.705700000000     0.871400000000     0.344300000000     0          
H43      H      0.666100000000     0.684800000000     0.158700000000     0          
C45      C      0.725000000000     0.816700000000     0.319700000000     0          
H46      H      0.973600000000     0.857900000000     0.009800000000     0          
O47      O      0.918400000000     0.390400000000     0.636600000000     0          
O48      O      0.843200000000     0.441500000000     0.572100000000     0          
C50      C      0.740300000000     0.298800000000     0.729300000000     0          
C51      C      0.724300000000     0.333500000000     0.672700000000     0          
C52      C      0.763400000000     0.368000000000     0.634900000000     0          
H53      H      0.751500000000     0.390300000000     0.595000000000     0          
C54      C      0.819900000000     0.368500000000     0.658000000000     0          
C55      C      0.838200000000     0.335500000000     0.715700000000     0          
H56      H      0.877400000000     0.335500000000     0.730700000000     0          
C57      C      0.795300000000     0.301600000000     0.751700000000     0          
C58      C      0.864400000000     0.402700000000     0.618900000000     0          
F63      F      0.783500000000     0.282000000000     0.881300000000     0          
F64      F      0.826500000000     0.215300000000     0.818000000000     0          
F65      F      0.871400000000     0.294300000000     0.844300000000     0          
H66      H      0.684800000000     0.333900000000     0.658700000000     0          
C68      C      0.816700000000     0.275000000000     0.819700000000     0          
O70      O      0.081600000000     0.609600000000     0.636600000000     0          
O71      O      0.156800000000     0.558500000000     0.572100000000     0          
C73      C      0.259700000000     0.701200000000     0.729300000000     0          
C74      C      0.275700000000     0.666500000000     0.672700000000     0          
C75      C      0.236600000000     0.632000000000     0.634900000000     0          
H76      H      0.248500000000     0.609700000000     0.595000000000     0          
C77      C      0.180100000000     0.631500000000     0.658000000000     0          
C78      C      0.161800000000     0.664500000000     0.715700000000     0          
H79      H      0.122600000000     0.664500000000     0.730700000000     0          
C80      C      0.204700000000     0.698400000000     0.751700000000     0          
C81      C      0.135600000000     0.597300000000     0.618900000000     0          
C82      C      0.043100000000     0.969770000000     0.536100000000     0          
F86      F      0.216500000000     0.718000000000     0.881300000000     0          
F87      F      0.173500000000     0.784700000000     0.818000000000     0          
F88      F      0.128600000000     0.705700000000     0.844300000000     0          
H89      H      0.315200000000     0.666100000000     0.658700000000     0          
H90      H      0.072500000000     0.949200000000     0.560800000000     0          
C91      C      0.183300000000     0.725000000000     0.819700000000     0          
F93      F      0.629200000000     0.348300000000     0.911900000000     0          
F94      F      0.660600000000     0.381400000000     0.812000000000     0          
F95      F      0.721700000000     0.350100000000     0.891900000000     0          
O96      O      0.609600000000     0.081600000000     0.863400000000     0          
O97      O      0.558500000000     0.156800000000     0.927900000000     0          
C99      C      0.701200000000     0.259700000000     0.770700000000     0          
C100     C      0.666500000000     0.275700000000     0.827300000000     0          
C101     C      0.632000000000     0.236600000000     0.865100000000     0          
H102     H      0.609700000000     0.248500000000     0.905000000000     0          
C103     C      0.631500000000     0.180100000000     0.842000000000     0          
C104     C      0.664500000000     0.161800000000     0.784300000000     0          
H105     H      0.664500000000     0.122600000000     0.769300000000     0          
C106     C      0.698400000000     0.204700000000     0.748300000000     0          
H107     H      0.719700000000     0.193700000000     0.707100000000     0          
C108     C      0.597300000000     0.135600000000     0.881100000000     0          
C109     C      0.669300000000     0.335400000000     0.858400000000     0          
C110     C      0.969770000000     0.043100000000     0.963900000000     0          
H114     H      0.949200000000     0.072500000000     0.939200000000     0          
F116     F      0.370800000000     0.651700000000     0.911900000000     0          
F117     F      0.339400000000     0.618600000000     0.812000000000     0          
F118     F      0.278300000000     0.649900000000     0.891900000000     0          
O119     O      0.390400000000     0.918400000000     0.863400000000     0          
O120     O      0.441500000000     0.843200000000     0.927900000000     0          
C122     C      0.298800000000     0.740300000000     0.770700000000     0          
C123     C      0.333500000000     0.724300000000     0.827300000000     0          
C124     C      0.368000000000     0.763400000000     0.865100000000     0          
H125     H      0.390300000000     0.751500000000     0.905000000000     0          
C126     C      0.368500000000     0.819900000000     0.842000000000     0          
C127     C      0.335500000000     0.838200000000     0.784300000000     0          
H128     H      0.335500000000     0.877400000000     0.769300000000     0          
C129     C      0.301600000000     0.795300000000     0.748300000000     0          
H130     H      0.280300000000     0.806300000000     0.707100000000     0          
C131     C      0.402700000000     0.864400000000     0.881100000000     0          
C132     C      0.330700000000     0.664600000000     0.858400000000     0          
F139     F      0.348300000000     0.370800000000     0.411900000000     0          
F140     F      0.381400000000     0.339400000000     0.312000000000     0          
F141     F      0.350100000000     0.278300000000     0.391900000000     0          
O142     O      0.081600000000     0.390400000000     0.363400000000     0          
O143     O      0.156800000000     0.441500000000     0.427900000000     0          
C145     C      0.259700000000     0.298800000000     0.270700000000     0          
C146     C      0.275700000000     0.333500000000     0.327300000000     0          
C147     C      0.236600000000     0.368000000000     0.365100000000     0          
H148     H      0.248500000000     0.390300000000     0.405000000000     0          
C149     C      0.180100000000     0.368500000000     0.342000000000     0          
C150     C      0.161800000000     0.335500000000     0.284300000000     0          
H151     H      0.122600000000     0.335500000000     0.269300000000     0          
C152     C      0.204700000000     0.301600000000     0.248300000000     0          
H153     H      0.193700000000     0.280300000000     0.207100000000     0          
C154     C      0.135600000000     0.402700000000     0.381100000000     0          
C155     C      0.335400000000     0.330700000000     0.358400000000     0          
F162     F      0.651700000000     0.629200000000     0.411900000000     0          
F163     F      0.618600000000     0.660600000000     0.312000000000     0          
F164     F      0.649900000000     0.721700000000     0.391900000000     0          
O165     O      0.918400000000     0.609600000000     0.363400000000     0          
O166     O      0.843200000000     0.558500000000     0.427900000000     0          
C168     C      0.740300000000     0.701200000000     0.270700000000     0          
C169     C      0.724300000000     0.666500000000     0.327300000000     0          
C170     C      0.763400000000     0.632000000000     0.365100000000     0          
H171     H      0.751500000000     0.609700000000     0.405000000000     0          
C172     C      0.819900000000     0.631500000000     0.342000000000     0          
C173     C      0.838200000000     0.664500000000     0.284300000000     0          
H174     H      0.877400000000     0.664500000000     0.269300000000     0          
C175     C      0.795300000000     0.698400000000     0.248300000000     0          
H176     H      0.806300000000     0.719700000000     0.207100000000     0          
C177     C      0.864400000000     0.597300000000     0.381100000000     0          
C178     C      0.664600000000     0.669300000000     0.358400000000     0          
C179     C      0.956900000000     0.969770000000     0.463900000000     0          
H183     H      0.927500000000     0.949200000000     0.439200000000     0          
O185     O      0.609600000000     0.918400000000     0.863400000000     0          
O186     O      0.558500000000     0.843200000000     0.927900000000     0          
C188     C      0.701200000000     0.740300000000     0.770700000000     0          
C189     C      0.666500000000     0.724300000000     0.827300000000     0          
C190     C      0.632000000000     0.763400000000     0.865100000000     0          
H191     H      0.609700000000     0.751500000000     0.905000000000     0          
C192     C      0.631500000000     0.819900000000     0.842000000000     0          
C193     C      0.664500000000     0.838200000000     0.784300000000     0          
H194     H      0.664500000000     0.877400000000     0.769300000000     0          
C195     C      0.698400000000     0.795300000000     0.748300000000     0          
C196     C      0.597300000000     0.864400000000     0.881100000000     0          
F201     F      0.718000000000     0.783500000000     0.618700000000     0          
F202     F      0.784700000000     0.826500000000     0.682000000000     0          
F203     F      0.705700000000     0.871400000000     0.655700000000     0          
H204     H      0.666100000000     0.684800000000     0.841300000000     0          
C206     C      0.725000000000     0.816700000000     0.680300000000     0          
O208     O      0.390400000000     0.081600000000     0.863400000000     0          
O209     O      0.441500000000     0.156800000000     0.927900000000     0          
C211     C      0.298800000000     0.259700000000     0.770700000000     0          
C212     C      0.333500000000     0.275700000000     0.827300000000     0          
C213     C      0.368000000000     0.236600000000     0.865100000000     0          
H214     H      0.390300000000     0.248500000000     0.905000000000     0          
C215     C      0.368500000000     0.180100000000     0.842000000000     0          
C216     C      0.335500000000     0.161800000000     0.784300000000     0          
H217     H      0.335500000000     0.122600000000     0.769300000000     0          
C218     C      0.301600000000     0.204700000000     0.748300000000     0          
C219     C      0.402700000000     0.135600000000     0.881100000000     0          
C220     C      0.030230000000     0.043100000000     0.963900000000     0          
F224     F      0.282000000000     0.216500000000     0.618700000000     0          
F225     F      0.215300000000     0.173500000000     0.682000000000     0          
F226     F      0.294300000000     0.128600000000     0.655700000000     0          
H227     H      0.333900000000     0.315200000000     0.841300000000     0          
H228     H      0.050800000000     0.072500000000     0.939200000000     0          
C229     C      0.275000000000     0.183300000000     0.680300000000     0          
O231     O      0.081600000000     0.609600000000     0.363400000000     0          
O232     O      0.156800000000     0.558500000000     0.427900000000     0          
C234     C      0.259700000000     0.701200000000     0.270700000000     0          
C235     C      0.275700000000     0.666500000000     0.327300000000     0          
C236     C      0.236600000000     0.632000000000     0.365100000000     0          
H237     H      0.248500000000     0.609700000000     0.405000000000     0          
C238     C      0.180100000000     0.631500000000     0.342000000000     0          
C239     C      0.161800000000     0.664500000000     0.284300000000     0          
H240     H      0.122600000000     0.664500000000     0.269300000000     0          
C241     C      0.204700000000     0.698400000000     0.248300000000     0          
C242     C      0.135600000000     0.597300000000     0.381100000000     0          
F247     F      0.216500000000     0.718000000000     0.118700000000     0          
F248     F      0.173500000000     0.784700000000     0.182000000000     0          
F249     F      0.128600000000     0.705700000000     0.155700000000     0          
H250     H      0.315200000000     0.666100000000     0.341300000000     0          
C252     C      0.183300000000     0.725000000000     0.180300000000     0          
O254     O      0.918400000000     0.390400000000     0.363400000000     0          
O255     O      0.843200000000     0.441500000000     0.427900000000     0          
O256     O      0.853700000000     0.048100000000     0.454600000000     0          
C257     C      0.740300000000     0.298800000000     0.270700000000     0          
C258     C      0.724300000000     0.333500000000     0.327300000000     0          
C259     C      0.763400000000     0.368000000000     0.365100000000     0          
H260     H      0.751500000000     0.390300000000     0.405000000000     0          
C261     C      0.819900000000     0.368500000000     0.342000000000     0          
C262     C      0.838200000000     0.335500000000     0.284300000000     0          
H263     H      0.877400000000     0.335500000000     0.269300000000     0          
C264     C      0.795300000000     0.301600000000     0.248300000000     0          
C265     C      0.864400000000     0.402700000000     0.381100000000     0          
C266     C      0.956900000000     0.030230000000     0.463900000000     0          
C267     C      0.908700000000     0.059800000000     0.423700000000     0          
H268     H      0.908800000000     0.046500000000     0.373500000000     0          
H269     H      0.915500000000     0.102100000000     0.423700000000     0          
F270     F      0.783500000000     0.282000000000     0.118700000000     0          
F271     F      0.826500000000     0.215300000000     0.182000000000     0          
F272     F      0.871400000000     0.294300000000     0.155700000000     0          
H273     H      0.684800000000     0.333900000000     0.341300000000     0          
C275     C      0.816700000000     0.275000000000     0.180300000000     0          
H276     H      0.857900000000     0.026400000000     0.490200000000     0          
F277     F      0.370800000000     0.651700000000     0.088100000000     0          
F278     F      0.339400000000     0.618600000000     0.188000000000     0          
F279     F      0.278300000000     0.649900000000     0.108100000000     0          
O280     O      0.390400000000     0.918400000000     0.136600000000     0          
O281     O      0.441500000000     0.843200000000     0.072100000000     0          
C283     C      0.298800000000     0.740300000000     0.229300000000     0          
C284     C      0.333500000000     0.724300000000     0.172700000000     0          
C285     C      0.368000000000     0.763400000000     0.134900000000     0          
H286     H      0.390300000000     0.751500000000     0.095000000000     0          
C287     C      0.368500000000     0.819900000000     0.158000000000     0          
C288     C      0.335500000000     0.838200000000     0.215700000000     0          
H289     H      0.335500000000     0.877400000000     0.230700000000     0          
C290     C      0.301600000000     0.795300000000     0.251700000000     0          
H291     H      0.280300000000     0.806300000000     0.292900000000     0          
C292     C      0.402700000000     0.864400000000     0.118900000000     0          
C293     C      0.330700000000     0.664600000000     0.141600000000     0          
C294     C      0.030230000000     0.956900000000     0.036100000000     0          
H298     H      0.050800000000     0.927500000000     0.060800000000     0          
F300     F      0.629200000000     0.348300000000     0.088100000000     0          
F301     F      0.660600000000     0.381400000000     0.188000000000     0          
F302     F      0.721700000000     0.350100000000     0.108100000000     0          
O303     O      0.609600000000     0.081600000000     0.136600000000     0          
O304     O      0.558500000000     0.156800000000     0.072100000000     0          
C306     C      0.701200000000     0.259700000000     0.229300000000     0          
C307     C      0.666500000000     0.275700000000     0.172700000000     0          
C308     C      0.632000000000     0.236600000000     0.134900000000     0          
H309     H      0.609700000000     0.248500000000     0.095000000000     0          
C310     C      0.631500000000     0.180100000000     0.158000000000     0          
C311     C      0.664500000000     0.161800000000     0.215700000000     0          
H312     H      0.664500000000     0.122600000000     0.230700000000     0          
C313     C      0.698400000000     0.204700000000     0.251700000000     0          
H314     H      0.719700000000     0.193700000000     0.292900000000     0          
C315     C      0.597300000000     0.135600000000     0.118900000000     0          
C316     C      0.669300000000     0.335400000000     0.141600000000     0          
F323     F      0.651700000000     0.629200000000     0.588100000000     0          
F324     F      0.618600000000     0.660600000000     0.688000000000     0          
F325     F      0.649900000000     0.721700000000     0.608100000000     0          
O326     O      0.918400000000     0.609600000000     0.636600000000     0          
O327     O      0.843200000000     0.558500000000     0.572100000000     0          
C329     C      0.740300000000     0.701200000000     0.729300000000     0          
C330     C      0.724300000000     0.666500000000     0.672700000000     0          
C331     C      0.763400000000     0.632000000000     0.634900000000     0          
H332     H      0.751500000000     0.609700000000     0.595000000000     0          
C333     C      0.819900000000     0.631500000000     0.658000000000     0          
C334     C      0.838200000000     0.664500000000     0.715700000000     0          
H335     H      0.877400000000     0.664500000000     0.730700000000     0          
C336     C      0.795300000000     0.698400000000     0.751700000000     0          
H337     H      0.806300000000     0.719700000000     0.792900000000     0          
C338     C      0.864400000000     0.597300000000     0.618900000000     0          
C339     C      0.664600000000     0.669300000000     0.641600000000     0          
F346     F      0.348300000000     0.370800000000     0.588100000000     0          
F347     F      0.381400000000     0.339400000000     0.688000000000     0          
F348     F      0.350100000000     0.278300000000     0.608100000000     0          
O349     O      0.081600000000     0.390400000000     0.636600000000     0          
O350     O      0.156800000000     0.441500000000     0.572100000000     0          
C352     C      0.259700000000     0.298800000000     0.729300000000     0          
C353     C      0.275700000000     0.333500000000     0.672700000000     0          
C354     C      0.236600000000     0.368000000000     0.634900000000     0          
H355     H      0.248500000000     0.390300000000     0.595000000000     0          
C356     C      0.180100000000     0.368500000000     0.658000000000     0          
C357     C      0.161800000000     0.335500000000     0.715700000000     0          
H358     H      0.122600000000     0.335500000000     0.730700000000     0          
C359     C      0.204700000000     0.301600000000     0.751700000000     0          
H360     H      0.193700000000     0.280300000000     0.792900000000     0          
C361     C      0.135600000000     0.402700000000     0.618900000000     0          
C362     C      0.335400000000     0.330700000000     0.641600000000     0          
C363     C      0.043100000000     0.030230000000     0.536100000000     0          
H367     H      0.072500000000     0.050800000000     0.560800000000     0          
Zr369    Zr     0.424590000000     0.000000000000     0.093180000000     0          
O370     O      0.449800000000     0.000000000000     0.206400000000     0          
O371     O      0.332400000000     0.000000000000     0.061100000000     0          
C372     C      0.447900000000     0.000000000000     0.424500000000     0          
C373     C      0.447800000000     0.000000000000     0.350300000000     0          
H374     H      0.412200000000     0.000000000000     0.324900000000     0          
C375     C      0.215600000000     0.000000000000     0.064300000000     0          
H376     H      0.236300000000     0.000000000000     0.108100000000     0          
C377     C      0.155300000000     0.000000000000     0.064400000000     0          
H378     H      0.134800000000     0.000000000000     0.108300000000     0          
H379     H      0.412400000000     0.000000000000     0.450100000000     0          
N380     N      0.552100000000     0.000000000000     0.424500000000     0          
Zr381    Zr     0.575410000000     0.000000000000     0.093180000000     0          
O382     O      0.550200000000     0.000000000000     0.206400000000     0          
O383     O      0.667600000000     0.000000000000     0.061100000000     0          
C385     C      0.552200000000     0.000000000000     0.350300000000     0          
H386     H      0.587800000000     0.000000000000     0.324900000000     0          
C387     C      0.784400000000     0.000000000000     0.064300000000     0          
H388     H      0.763700000000     0.000000000000     0.108100000000     0          
C389     C      0.844700000000     0.000000000000     0.064400000000     0          
H390     H      0.865200000000     0.000000000000     0.108300000000     0          
Zr391    Zr     0.000000000000     0.424590000000     0.593180000000     0          
O392     O      0.000000000000     0.449800000000     0.706400000000     0          
O393     O      0.000000000000     0.332400000000     0.561100000000     0          
C394     N      0.000000000000     0.447900000000     0.924500000000     0          
C395     C      0.000000000000     0.447800000000     0.850300000000     0          
H396     H      0.000000000000     0.412200000000     0.824900000000     0          
C397     C      0.000000000000     0.215600000000     0.564300000000     0          
H398     H      0.000000000000     0.236300000000     0.608100000000     0          
C399     C      0.000000000000     0.155300000000     0.564400000000     0          
H400     H      0.000000000000     0.134800000000     0.608300000000     0          
N402     C      0.000000000000     0.552100000000     0.924500000000     0          
Zr403    Zr     0.000000000000     0.575410000000     0.593180000000     0          
O404     O      0.000000000000     0.550200000000     0.706400000000     0          
O405     O      0.000000000000     0.667600000000     0.561100000000     0          
C407     C      0.000000000000     0.552200000000     0.850300000000     0          
H408     H      0.000000000000     0.587800000000     0.824900000000     0          
C409     C      0.000000000000     0.784400000000     0.564300000000     0          
H410     H      0.000000000000     0.763700000000     0.608100000000     0          
C411     C      0.000000000000     0.844700000000     0.564400000000     0          
H412     H      0.000000000000     0.865200000000     0.608300000000     0          
H413     H      0.000000000000     0.587600000000     0.950100000000     0          
Zr415    Zr     0.575410000000     0.000000000000     0.906820000000     0          
O416     O      0.550200000000     0.000000000000     0.793600000000     0          
O417     O      0.667600000000     0.000000000000     0.938900000000     0          
C418     N      0.552100000000     0.000000000000     0.575500000000     0          
C419     C      0.552200000000     0.000000000000     0.649700000000     0          
H420     H      0.587800000000     0.000000000000     0.675100000000     0          
C421     C      0.784400000000     0.000000000000     0.935700000000     0          
H422     H      0.763700000000     0.000000000000     0.891900000000     0          
C423     C      0.844700000000     0.000000000000     0.935600000000     0          
H424     H      0.865200000000     0.000000000000     0.891700000000     0          
Zr425    Zr     0.424590000000     0.000000000000     0.906820000000     0          
O426     O      0.449800000000     0.000000000000     0.793600000000     0          
O427     O      0.332400000000     0.000000000000     0.938900000000     0          
C428     C      0.447900000000     0.000000000000     0.575500000000     0          
C429     C      0.447800000000     0.000000000000     0.649700000000     0          
H430     H      0.412200000000     0.000000000000     0.675100000000     0          
C431     C      0.215600000000     0.000000000000     0.935700000000     0          
H432     H      0.236300000000     0.000000000000     0.891900000000     0          
C433     C      0.155300000000     0.000000000000     0.935600000000     0          
H434     H      0.134800000000     0.000000000000     0.891700000000     0          
H435     H      0.412400000000     0.000000000000     0.549900000000     0          
Zr437    Zr     0.000000000000     0.424590000000     0.406820000000     0          
O438     O      0.000000000000     0.449800000000     0.293600000000     0          
O439     O      0.000000000000     0.332400000000     0.438900000000     0          
C440     N      0.000000000000     0.447900000000     0.075500000000     0          
C441     C      0.000000000000     0.447800000000     0.149700000000     0          
H442     H      0.000000000000     0.412200000000     0.175100000000     0          
C443     C      0.000000000000     0.215600000000     0.435700000000     0          
H444     H      0.000000000000     0.236300000000     0.391900000000     0          
C445     C      0.000000000000     0.155300000000     0.435600000000     0          
H446     H      0.000000000000     0.134800000000     0.391700000000     0          
N448     C      0.000000000000     0.552100000000     0.075500000000     0          
Zr449    Zr     0.000000000000     0.575410000000     0.406820000000     0          
O450     O      0.000000000000     0.550200000000     0.293600000000     0          
O451     O      0.000000000000     0.667600000000     0.438900000000     0          
C453     C      0.000000000000     0.552200000000     0.149700000000     0          
H454     H      0.000000000000     0.587800000000     0.175100000000     0          
C455     C      0.000000000000     0.784400000000     0.435700000000     0          
H456     H      0.000000000000     0.763700000000     0.391900000000     0          
C457     C      0.000000000000     0.844700000000     0.435600000000     0          
H458     H      0.000000000000     0.865200000000     0.391700000000     0          
H459     H      0.000000000000     0.587600000000     0.049900000000     0          
Zr461    Zr     0.500000000000     0.107770000000     0.000000000000     0          
Zr462    Zr     0.500000000000     0.892230000000     0.000000000000     0          
Zr463    Zr     0.892230000000     0.500000000000     0.500000000000     0          
Zr464    Zr     0.107770000000     0.500000000000     0.500000000000     0          
O465     O      0.424700000000     0.054200000000     0.000000000000     0          
O466     O      0.575300000000     0.945800000000     0.000000000000     0          
O467     O      0.945800000000     0.424700000000     0.500000000000     0          
O468     O      0.054200000000     0.575300000000     0.500000000000     0          
O469     O      0.575300000000     0.054200000000     0.000000000000     0          
O470     O      0.424700000000     0.945800000000     0.000000000000     0          
O471     O      0.054200000000     0.424700000000     0.500000000000     0          
O472     O      0.945800000000     0.575300000000     0.500000000000     0          
O473     O      0.500000000000     0.053800000000     0.091100000000     0          
O474     O      0.500000000000     0.946200000000     0.091100000000     0          
O475     O      0.946200000000     0.500000000000     0.591100000000     0          
O476     O      0.053800000000     0.500000000000     0.591100000000     0          
O477     O      0.500000000000     0.053800000000     0.908900000000     0          
O479     O      0.053800000000     0.500000000000     0.408900000000     0          
O480     O      0.946200000000     0.500000000000     0.408900000000     0          
C481     C      0.500000000000     0.000000000000     0.234300000000     0          
C482     C      0.500000000000     0.000000000000     0.313400000000     0          
C483     C      0.500000000000     0.000000000000     0.460600000000     0          
C484     C      0.000000000000     0.500000000000     0.734300000000     0          
C485     C      0.000000000000     0.500000000000     0.813400000000     0          
C486     C      0.000000000000     0.500000000000     0.960600000000     0          
C487     C      0.500000000000     0.000000000000     0.765700000000     0          
C488     C      0.500000000000     0.000000000000     0.686600000000     0          
C489     C      0.500000000000     0.000000000000     0.539400000000     0          
C490     C      0.000000000000     0.500000000000     0.265700000000     0          
C491     C      0.000000000000     0.500000000000     0.186600000000     0          
C492     C      0.000000000000     0.500000000000     0.039400000000     0          
C493     C      0.309400000000     0.000000000000     0.000000000000     0          
C494     C      0.245200000000     0.000000000000     0.000000000000     0          
C495     C      0.125100000000     0.000000000000     0.000000000000     0          
C496     C      0.060270000000     0.000000000000     0.000000000000     0          
C497     C      0.690600000000     0.000000000000     0.000000000000     0          
C498     C      0.754800000000     0.000000000000     0.000000000000     0          
C499     C      0.874900000000     0.000000000000     0.000000000000     0          
C500     C      0.939730000000     0.000000000000     0.000000000000     0          
C501     C      0.000000000000     0.309400000000     0.500000000000     0          
C502     C      0.000000000000     0.245200000000     0.500000000000     0          
C503     C      0.000000000000     0.125100000000     0.500000000000     0          
C504     C      0.000000000000     0.060270000000     0.500000000000     0          
C505     C      0.000000000000     0.690600000000     0.500000000000     0          
C506     C      0.000000000000     0.754800000000     0.500000000000     0          
C507     C      0.000000000000     0.874900000000     0.500000000000     0          
C508     C      0.000000000000     0.939730000000     0.500000000000     0          
O478     O      0.500000000000     0.946200000000     0.908900000000     0          


