data_TAXGEH

_audit_creation_method RASPA-1.0
_audit_creation_date 2020-11-2
_audit_author_name 'Rocio Bueno-Perez'

_cell_length_a    23.0855
_cell_length_b    23.0855
_cell_length_c    18.8784
_cell_angle_alpha 90
_cell_angle_beta  90
_cell_angle_gamma 90
_cell_volume      10061.1

_symmetry_cell_setting          triclinic
_symmetry_space_group_name_Hall 'P 1'
_symmetry_space_group_name_H-M  'P 1'
_symmetry_Int_Tables_number     1

_symmetry_equiv_pos_as_xyz 'x,y,z'

loop_
_atom_site_label
_atom_site_type_symbol
_atom_site_fract_x
_atom_site_fract_y
_atom_site_fract_z
_atom_site_charge
O1       O      0.391500000000     0.084300000000     0.132800000000     0          
O2       O      0.441100000000     0.156410000000     0.071700000000     0          
C4       C      0.302000000000     0.261100000000     0.231000000000     0          
C5       C      0.335700000000     0.277700000000     0.173800000000     0          
C6       C      0.369700000000     0.238400000000     0.137600000000     0          
H7       H      0.393200000000     0.250900000000     0.099200000000     0          
C8       C      0.369300000000     0.181500000000     0.157300000000     0          
C9       C      0.336100000000     0.165000000000     0.213900000000     0          
H10      H      0.334600000000     0.125200000000     0.226600000000     0          
C11      C      0.304700000000     0.204900000000     0.253100000000     0          
C12      C      0.403700000000     0.137300000000     0.117100000000     0          
F15      F      0.293500000000     0.214000000000     0.384200000000     0          
F16      F      0.222400000000     0.173200000000     0.328700000000     0          
F17      F      0.302500000000     0.126500000000     0.344900000000     0          
H18      H      0.335500000000     0.317100000000     0.159300000000     0          
C19      C      0.282800000000     0.181500000000     0.322500000000     0          
O22      O      0.608500000000     0.915700000000     0.132800000000     0          
O23      O      0.558900000000     0.843590000000     0.071700000000     0          
N24      N      0.976000000000     0.854000000000     0.035100000000     0          
C25      C      0.698000000000     0.738900000000     0.231000000000     0          
C26      C      0.664300000000     0.722300000000     0.173800000000     0          
C27      C      0.630300000000     0.761600000000     0.137600000000     0          
H28      H      0.606800000000     0.749100000000     0.099200000000     0          
C29      C      0.630700000000     0.818500000000     0.157300000000     0          
C30      C      0.663900000000     0.835000000000     0.213900000000     0          
H31      H      0.665400000000     0.874800000000     0.226600000000     0          
C32      C      0.695300000000     0.795100000000     0.253100000000     0          
C33      C      0.596300000000     0.862700000000     0.117100000000     0          
N34      N      0.973000000000     0.855000000000     0.101700000000     0          
N35      N      0.973000000000     0.850000000000     0.160400000000     0          
F36      F      0.706500000000     0.786000000000     0.384200000000     0          
F37      F      0.777600000000     0.826800000000     0.328700000000     0          
F38      F      0.697500000000     0.873500000000     0.344900000000     0          
H39      H      0.664500000000     0.682900000000     0.159300000000     0          
C40      C      0.717200000000     0.818500000000     0.322500000000     0          
H41      H      0.900500000000     0.897300000000     0.023900000000     0          
O43      O      0.915700000000     0.391500000000     0.632800000000     0          
O44      O      0.843590000000     0.441100000000     0.571700000000     0          
N45      N      0.854000000000     0.024000000000     0.535100000000     0          
C46      C      0.738900000000     0.302000000000     0.731000000000     0          
C47      C      0.722300000000     0.335700000000     0.673800000000     0          
C48      C      0.761600000000     0.369700000000     0.637600000000     0          
H49      H      0.749100000000     0.393200000000     0.599200000000     0          
C50      C      0.818500000000     0.369300000000     0.657300000000     0          
C51      C      0.835000000000     0.336100000000     0.713900000000     0          
H52      H      0.874800000000     0.334600000000     0.726600000000     0          
C53      C      0.795100000000     0.304700000000     0.753100000000     0          
C54      C      0.862700000000     0.403700000000     0.617100000000     0          
N55      N      0.855000000000     0.027000000000     0.601700000000     0          
N56      N      0.850000000000     0.027000000000     0.660400000000     0          
F57      F      0.786000000000     0.293500000000     0.884200000000     0          
F58      F      0.826800000000     0.222400000000     0.828700000000     0          
F59      F      0.873500000000     0.302500000000     0.844900000000     0          
H60      H      0.682900000000     0.335500000000     0.659300000000     0          
C61      C      0.818500000000     0.282800000000     0.822500000000     0          
H62      H      0.897300000000     0.099500000000     0.523900000000     0          
O64      O      0.084300000000     0.608500000000     0.632800000000     0          
O65      O      0.156410000000     0.558900000000     0.571700000000     0          
C67      C      0.261100000000     0.698000000000     0.731000000000     0          
C68      C      0.277700000000     0.664300000000     0.673800000000     0          
C69      C      0.238400000000     0.630300000000     0.637600000000     0          
H70      H      0.250900000000     0.606800000000     0.599200000000     0          
C71      C      0.181500000000     0.630700000000     0.657300000000     0          
C72      C      0.165000000000     0.663900000000     0.713900000000     0          
H73      H      0.125200000000     0.665400000000     0.726600000000     0          
C74      C      0.204900000000     0.695300000000     0.753100000000     0          
C75      C      0.137300000000     0.596300000000     0.617100000000     0          
F78      F      0.214000000000     0.706500000000     0.884200000000     0          
F79      F      0.173200000000     0.777600000000     0.828700000000     0          
F80      F      0.126500000000     0.697500000000     0.844900000000     0          
H81      H      0.317100000000     0.664500000000     0.659300000000     0          
C82      C      0.181500000000     0.717200000000     0.822500000000     0          
F85      F      0.722100000000     0.349600000000     0.891900000000     0          
F86      F      0.662000000000     0.383400000000     0.812700000000     0          
F87      F      0.629700000000     0.350700000000     0.912900000000     0          
O88      O      0.608500000000     0.084300000000     0.867200000000     0          
O89      O      0.558900000000     0.156410000000     0.928300000000     0          
C91      C      0.698000000000     0.261100000000     0.769000000000     0          
C92      C      0.664300000000     0.277700000000     0.826200000000     0          
C93      C      0.630300000000     0.238400000000     0.862400000000     0          
H94      H      0.606800000000     0.250900000000     0.900800000000     0          
C95      C      0.630700000000     0.181500000000     0.842700000000     0          
C96      C      0.663900000000     0.165000000000     0.786100000000     0          
H97      H      0.665400000000     0.125200000000     0.773400000000     0          
C98      C      0.695300000000     0.204900000000     0.746900000000     0          
H99      H      0.714700000000     0.193300000000     0.704900000000     0          
C100     C      0.596300000000     0.137300000000     0.882900000000     0          
C101     C      0.668000000000     0.336700000000     0.859700000000     0          
F106     F      0.277900000000     0.650400000000     0.891900000000     0          
F107     F      0.338000000000     0.616600000000     0.812700000000     0          
F108     F      0.370300000000     0.649300000000     0.912900000000     0          
O109     O      0.391500000000     0.915700000000     0.867200000000     0          
O110     O      0.441100000000     0.843590000000     0.928300000000     0          
C112     C      0.302000000000     0.738900000000     0.769000000000     0          
C113     C      0.335700000000     0.722300000000     0.826200000000     0          
C114     C      0.369700000000     0.761600000000     0.862400000000     0          
H115     H      0.393200000000     0.749100000000     0.900800000000     0          
C116     C      0.369300000000     0.818500000000     0.842700000000     0          
C117     C      0.336100000000     0.835000000000     0.786100000000     0          
H118     H      0.334600000000     0.874800000000     0.773400000000     0          
C119     C      0.304700000000     0.795100000000     0.746900000000     0          
H120     H      0.285300000000     0.806700000000     0.704900000000     0          
C121     C      0.403700000000     0.862700000000     0.882900000000     0          
C122     C      0.332000000000     0.663300000000     0.859700000000     0          
F127     F      0.349600000000     0.277900000000     0.391900000000     0          
F128     F      0.383400000000     0.338000000000     0.312700000000     0          
F129     F      0.350700000000     0.370300000000     0.412900000000     0          
O130     O      0.084300000000     0.391500000000     0.367200000000     0          
O131     O      0.156410000000     0.441100000000     0.428300000000     0          
C133     C      0.261100000000     0.302000000000     0.269000000000     0          
C134     C      0.277700000000     0.335700000000     0.326200000000     0          
C135     C      0.238400000000     0.369700000000     0.362400000000     0          
H136     H      0.250900000000     0.393200000000     0.400800000000     0          
C137     C      0.181500000000     0.369300000000     0.342700000000     0          
C138     C      0.165000000000     0.336100000000     0.286100000000     0          
H139     H      0.125200000000     0.334600000000     0.273400000000     0          
C140     C      0.204900000000     0.304700000000     0.246900000000     0          
H141     H      0.193300000000     0.285300000000     0.204900000000     0          
C142     C      0.137300000000     0.403700000000     0.382900000000     0          
C143     C      0.336700000000     0.332000000000     0.359700000000     0          
F148     F      0.650400000000     0.722100000000     0.391900000000     0          
F149     F      0.616600000000     0.662000000000     0.312700000000     0          
F150     F      0.649300000000     0.629700000000     0.412900000000     0          
O151     O      0.915700000000     0.608500000000     0.367200000000     0          
O152     O      0.843590000000     0.558900000000     0.428300000000     0          
C154     C      0.738900000000     0.698000000000     0.269000000000     0          
C155     C      0.722300000000     0.664300000000     0.326200000000     0          
C156     C      0.761600000000     0.630300000000     0.362400000000     0          
H157     H      0.749100000000     0.606800000000     0.400800000000     0          
C158     C      0.818500000000     0.630700000000     0.342700000000     0          
C159     C      0.835000000000     0.663900000000     0.286100000000     0          
H160     H      0.874800000000     0.665400000000     0.273400000000     0          
C161     C      0.795100000000     0.695300000000     0.246900000000     0          
H162     H      0.806700000000     0.714700000000     0.204900000000     0          
C163     C      0.862700000000     0.596300000000     0.382900000000     0          
C164     C      0.663300000000     0.668000000000     0.359700000000     0          
O169     O      0.608500000000     0.915700000000     0.867200000000     0          
O170     O      0.558900000000     0.843590000000     0.928300000000     0          
C172     C      0.698000000000     0.738900000000     0.769000000000     0          
C173     C      0.664300000000     0.722300000000     0.826200000000     0          
C174     C      0.630300000000     0.761600000000     0.862400000000     0          
H175     H      0.606800000000     0.749100000000     0.900800000000     0          
C176     C      0.630700000000     0.818500000000     0.842700000000     0          
C177     C      0.663900000000     0.835000000000     0.786100000000     0          
H178     H      0.665400000000     0.874800000000     0.773400000000     0          
C179     C      0.695300000000     0.795100000000     0.746900000000     0          
C180     C      0.596300000000     0.862700000000     0.882900000000     0          
F183     F      0.706500000000     0.786000000000     0.615800000000     0          
F184     F      0.777600000000     0.826800000000     0.671300000000     0          
F185     F      0.697500000000     0.873500000000     0.655100000000     0          
H186     H      0.664500000000     0.682900000000     0.840700000000     0          
C187     C      0.717200000000     0.818500000000     0.677500000000     0          
H188     H      0.900500000000     0.897300000000     0.976100000000     0          
O190     O      0.391500000000     0.084300000000     0.867200000000     0          
O191     O      0.441100000000     0.156410000000     0.928300000000     0          
C193     C      0.302000000000     0.261100000000     0.769000000000     0          
C194     C      0.335700000000     0.277700000000     0.826200000000     0          
C195     C      0.369700000000     0.238400000000     0.862400000000     0          
H196     H      0.393200000000     0.250900000000     0.900800000000     0          
C197     C      0.369300000000     0.181500000000     0.842700000000     0          
C198     C      0.336100000000     0.165000000000     0.786100000000     0          
H199     H      0.334600000000     0.125200000000     0.773400000000     0          
C200     C      0.304700000000     0.204900000000     0.746900000000     0          
C201     C      0.403700000000     0.137300000000     0.882900000000     0          
F204     F      0.293500000000     0.214000000000     0.615800000000     0          
F205     F      0.222400000000     0.173200000000     0.671300000000     0          
F206     F      0.302500000000     0.126500000000     0.655100000000     0          
H207     H      0.335500000000     0.317100000000     0.840700000000     0          
C208     C      0.282800000000     0.181500000000     0.677500000000     0          
O211     O      0.084300000000     0.608500000000     0.367200000000     0          
O212     O      0.156410000000     0.558900000000     0.428300000000     0          
C214     C      0.261100000000     0.698000000000     0.269000000000     0          
C215     C      0.277700000000     0.664300000000     0.326200000000     0          
C216     C      0.238400000000     0.630300000000     0.362400000000     0          
H217     H      0.250900000000     0.606800000000     0.400800000000     0          
C218     C      0.181500000000     0.630700000000     0.342700000000     0          
C219     C      0.165000000000     0.663900000000     0.286100000000     0          
H220     H      0.125200000000     0.665400000000     0.273400000000     0          
C221     C      0.204900000000     0.695300000000     0.246900000000     0          
C222     C      0.137300000000     0.596300000000     0.382900000000     0          
F225     F      0.214000000000     0.706500000000     0.115800000000     0          
F226     F      0.173200000000     0.777600000000     0.171300000000     0          
F227     F      0.126500000000     0.697500000000     0.155100000000     0          
H228     H      0.317100000000     0.664500000000     0.340700000000     0          
C229     C      0.181500000000     0.717200000000     0.177500000000     0          
O232     O      0.915700000000     0.391500000000     0.367200000000     0          
O233     O      0.843590000000     0.441100000000     0.428300000000     0          
C235     C      0.738900000000     0.302000000000     0.269000000000     0          
C236     C      0.722300000000     0.335700000000     0.326200000000     0          
C237     C      0.761600000000     0.369700000000     0.362400000000     0          
H238     H      0.749100000000     0.393200000000     0.400800000000     0          
C239     C      0.818500000000     0.369300000000     0.342700000000     0          
C240     C      0.835000000000     0.336100000000     0.286100000000     0          
H241     H      0.874800000000     0.334600000000     0.273400000000     0          
C242     C      0.795100000000     0.304700000000     0.246900000000     0          
C243     C      0.862700000000     0.403700000000     0.382900000000     0          
F246     F      0.786000000000     0.293500000000     0.115800000000     0          
F247     F      0.826800000000     0.222400000000     0.171300000000     0          
F248     F      0.873500000000     0.302500000000     0.155100000000     0          
H249     H      0.682900000000     0.335500000000     0.340700000000     0          
C250     C      0.818500000000     0.282800000000     0.177500000000     0          
H251     H      0.897300000000     0.099500000000     0.476100000000     0          
F253     F      0.277900000000     0.650400000000     0.108100000000     0          
F254     F      0.338000000000     0.616600000000     0.187300000000     0          
F255     F      0.370300000000     0.649300000000     0.087100000000     0          
O256     O      0.391500000000     0.915700000000     0.132800000000     0          
O257     O      0.441100000000     0.843590000000     0.071700000000     0          
C259     C      0.302000000000     0.738900000000     0.231000000000     0          
C260     C      0.335700000000     0.722300000000     0.173800000000     0          
C261     C      0.369700000000     0.761600000000     0.137600000000     0          
H262     H      0.393200000000     0.749100000000     0.099200000000     0          
C263     C      0.369300000000     0.818500000000     0.157300000000     0          
C264     C      0.336100000000     0.835000000000     0.213900000000     0          
H265     H      0.334600000000     0.874800000000     0.226600000000     0          
C266     C      0.304700000000     0.795100000000     0.253100000000     0          
H267     H      0.285300000000     0.806700000000     0.295100000000     0          
C268     C      0.403700000000     0.862700000000     0.117100000000     0          
C269     C      0.332000000000     0.663300000000     0.140300000000     0          
F274     F      0.722100000000     0.349600000000     0.108100000000     0          
F275     F      0.662000000000     0.383400000000     0.187300000000     0          
F276     F      0.629700000000     0.350700000000     0.087100000000     0          
O277     O      0.608500000000     0.084300000000     0.132800000000     0          
O278     O      0.558900000000     0.156410000000     0.071700000000     0          
C280     C      0.698000000000     0.261100000000     0.231000000000     0          
C281     C      0.664300000000     0.277700000000     0.173800000000     0          
C282     C      0.630300000000     0.238400000000     0.137600000000     0          
H283     H      0.606800000000     0.250900000000     0.099200000000     0          
C284     C      0.630700000000     0.181500000000     0.157300000000     0          
C285     C      0.663900000000     0.165000000000     0.213900000000     0          
H286     H      0.665400000000     0.125200000000     0.226600000000     0          
C287     C      0.695300000000     0.204900000000     0.253100000000     0          
H288     H      0.714700000000     0.193300000000     0.295100000000     0          
C289     C      0.596300000000     0.137300000000     0.117100000000     0          
C290     C      0.668000000000     0.336700000000     0.140300000000     0          
F295     F      0.650400000000     0.722100000000     0.608100000000     0          
F296     F      0.616600000000     0.662000000000     0.687300000000     0          
F297     F      0.649300000000     0.629700000000     0.587100000000     0          
O298     O      0.915700000000     0.608500000000     0.632800000000     0          
O299     O      0.843590000000     0.558900000000     0.571700000000     0          
C301     C      0.738900000000     0.698000000000     0.731000000000     0          
C302     C      0.722300000000     0.664300000000     0.673800000000     0          
C303     C      0.761600000000     0.630300000000     0.637600000000     0          
H304     H      0.749100000000     0.606800000000     0.599200000000     0          
C305     C      0.818500000000     0.630700000000     0.657300000000     0          
C306     C      0.835000000000     0.663900000000     0.713900000000     0          
H307     H      0.874800000000     0.665400000000     0.726600000000     0          
C308     C      0.795100000000     0.695300000000     0.753100000000     0          
H309     H      0.806700000000     0.714700000000     0.795100000000     0          
C310     C      0.862700000000     0.596300000000     0.617100000000     0          
C311     C      0.663300000000     0.668000000000     0.640300000000     0          
F316     F      0.349600000000     0.277900000000     0.608100000000     0          
F317     F      0.383400000000     0.338000000000     0.687300000000     0          
F318     F      0.350700000000     0.370300000000     0.587100000000     0          
O319     O      0.084300000000     0.391500000000     0.632800000000     0          
O320     O      0.156410000000     0.441100000000     0.571700000000     0          
C322     C      0.261100000000     0.302000000000     0.731000000000     0          
C323     C      0.277700000000     0.335700000000     0.673800000000     0          
C324     C      0.238400000000     0.369700000000     0.637600000000     0          
H325     H      0.250900000000     0.393200000000     0.599200000000     0          
C326     C      0.181500000000     0.369300000000     0.657300000000     0          
C327     C      0.165000000000     0.336100000000     0.713900000000     0          
H328     H      0.125200000000     0.334600000000     0.726600000000     0          
C329     C      0.204900000000     0.304700000000     0.753100000000     0          
H330     H      0.193300000000     0.285300000000     0.795100000000     0          
C331     C      0.137300000000     0.403700000000     0.617100000000     0          
C332     C      0.336700000000     0.332000000000     0.640300000000     0          
Zr337    Zr     0.424400000000     0.000000000000     0.092500000000     0          
O338     O      0.443900000000     0.000000000000     0.206200000000     0          
O339     O      0.332200000000     0.000000000000     0.061500000000     0          
C340     C      0.447600000000     0.000000000000     0.349500000000     0          
H341     H      0.412000000000     0.000000000000     0.324300000000     0          
C342     C      0.447750000000     0.000000000000     0.423300000000     0          
C343     C      0.215100000000     0.000000000000     0.063800000000     0          
H344     H      0.235800000000     0.000000000000     0.107400000000     0          
C345     C      0.154600000000     0.000000000000     0.063800000000     0          
H346     H      0.133900000000     0.000000000000     0.107400000000     0          
N347     N      0.395200000000     0.000000000000     0.460200000000     0          
H348     H      0.362200000000     0.000000000000     0.436900000000     0          
H349     H      0.395200000000     0.000000000000     0.506900000000     0          
Zr351    Zr     0.575600000000     0.000000000000     0.092500000000     0          
O352     O      0.556100000000     0.000000000000     0.206200000000     0          
O353     O      0.667800000000     0.000000000000     0.061500000000     0          
C354     C      0.552400000000     0.000000000000     0.349500000000     0          
H355     H      0.588000000000     0.000000000000     0.324300000000     0          
C356     C      0.552250000000     0.000000000000     0.423300000000     0          
C357     C      0.784900000000     0.000000000000     0.063800000000     0          
H358     H      0.764200000000     0.000000000000     0.107400000000     0          
C359     C      0.845400000000     0.000000000000     0.063800000000     0          
H360     H      0.866100000000     0.000000000000     0.107400000000     0          
H361     H      0.587900000000     0.000000000000     0.448400000000     0          
Zr362    Zr     0.000000000000     0.424400000000     0.592500000000     0          
O363     O      0.000000000000     0.443900000000     0.706200000000     0          
O364     O      0.000000000000     0.332200000000     0.561500000000     0          
C365     C      0.000000000000     0.447600000000     0.849500000000     0          
H366     H      0.000000000000     0.412000000000     0.824300000000     0          
C367     C      0.000000000000     0.447750000000     0.923300000000     0          
C368     C      0.000000000000     0.215100000000     0.563800000000     0          
H369     H      0.000000000000     0.235800000000     0.607400000000     0          
C370     C      0.000000000000     0.154600000000     0.563800000000     0          
H371     H      0.000000000000     0.133900000000     0.607400000000     0          
H375     H      0.000000000000     0.412100000000     0.948400000000     0          
Zr376    Zr     0.000000000000     0.575600000000     0.592500000000     0          
O377     O      0.000000000000     0.556100000000     0.706200000000     0          
O378     O      0.000000000000     0.667800000000     0.561500000000     0          
C379     C      0.000000000000     0.552400000000     0.849500000000     0          
H380     H      0.000000000000     0.588000000000     0.824300000000     0          
C381     C      0.000000000000     0.552250000000     0.923300000000     0          
C382     C      0.000000000000     0.784900000000     0.563800000000     0          
H383     H      0.000000000000     0.764200000000     0.607400000000     0          
C384     C      0.000000000000     0.845400000000     0.563800000000     0          
H385     H      0.000000000000     0.866100000000     0.607400000000     0          
N386     N      0.000000000000     0.604800000000     0.960200000000     0          
H387     H      0.000000000000     0.637800000000     0.936900000000     0          
H388     H      0.000000000000     0.604800000000     0.006900000000     0          
Zr390    Zr     0.575600000000     0.000000000000     0.907500000000     0          
O391     O      0.556100000000     0.000000000000     0.793800000000     0          
O392     O      0.667800000000     0.000000000000     0.938500000000     0          
C393     C      0.552400000000     0.000000000000     0.650500000000     0          
H394     H      0.588000000000     0.000000000000     0.675700000000     0          
C395     C      0.552250000000     0.000000000000     0.576700000000     0          
C396     C      0.784900000000     0.000000000000     0.936200000000     0          
H397     H      0.764200000000     0.000000000000     0.892600000000     0          
C398     C      0.845400000000     0.000000000000     0.936200000000     0          
H399     H      0.866100000000     0.000000000000     0.892600000000     0          
H400     H      0.587900000000     0.000000000000     0.551600000000     0          
Zr401    Zr     0.424400000000     0.000000000000     0.907500000000     0          
O402     O      0.443900000000     0.000000000000     0.793800000000     0          
O403     O      0.332200000000     0.000000000000     0.938500000000     0          
C404     C      0.447600000000     0.000000000000     0.650500000000     0          
H405     H      0.412000000000     0.000000000000     0.675700000000     0          
C406     C      0.447750000000     0.000000000000     0.576700000000     0          
C407     C      0.215100000000     0.000000000000     0.936200000000     0          
H408     H      0.235800000000     0.000000000000     0.892600000000     0          
C409     C      0.154600000000     0.000000000000     0.936200000000     0          
H410     H      0.133900000000     0.000000000000     0.892600000000     0          
H411     H      0.412100000000     0.000000000000     0.551600000000     0          
Zr412    Zr     0.000000000000     0.424400000000     0.407500000000     0          
O413     O      0.000000000000     0.443900000000     0.293800000000     0          
O414     O      0.000000000000     0.332200000000     0.438500000000     0          
C415     C      0.000000000000     0.447600000000     0.150500000000     0          
H416     H      0.000000000000     0.412000000000     0.175700000000     0          
C417     C      0.000000000000     0.447750000000     0.076700000000     0          
C418     C      0.000000000000     0.215100000000     0.436200000000     0          
H419     H      0.000000000000     0.235800000000     0.392600000000     0          
C420     C      0.000000000000     0.154600000000     0.436200000000     0          
H421     H      0.000000000000     0.133900000000     0.392600000000     0          
H425     H      0.000000000000     0.412100000000     0.051600000000     0          
Zr426    Zr     0.000000000000     0.575600000000     0.407500000000     0          
O427     O      0.000000000000     0.556100000000     0.293800000000     0          
O428     O      0.000000000000     0.667800000000     0.438500000000     0          
C429     C      0.000000000000     0.552400000000     0.150500000000     0          
H430     H      0.000000000000     0.588000000000     0.175700000000     0          
C431     C      0.000000000000     0.552250000000     0.076700000000     0          
C432     C      0.000000000000     0.784900000000     0.436200000000     0          
H433     H      0.000000000000     0.764200000000     0.392600000000     0          
C434     C      0.000000000000     0.845400000000     0.436200000000     0          
H435     H      0.000000000000     0.866100000000     0.392600000000     0          
H439     H      0.000000000000     0.587900000000     0.051600000000     0          
Zr440    Zr     0.500000000000     0.107710000000     0.000000000000     0          
Zr441    Zr     0.500000000000     0.892290000000     0.000000000000     0          
Zr442    Zr     0.892290000000     0.500000000000     0.500000000000     0          
Zr443    Zr     0.107710000000     0.500000000000     0.500000000000     0          
O444     O      0.425000000000     0.053400000000     0.000000000000     0          
C445     C      0.030180000000     0.052250000000     0.000000000000     0          
H447     H      0.050800000000     0.087900000000     0.000000000000     0          
O448     O      0.575000000000     0.946600000000     0.000000000000     0          
C449     C      0.969820000000     0.947750000000     0.000000000000     0          
C450     C      0.938100000000     0.890800000000     0.000000000000     0          
O452     O      0.946600000000     0.425000000000     0.500000000000     0          
C453     C      0.947750000000     0.030180000000     0.500000000000     0          
C454     C      0.890800000000     0.061900000000     0.500000000000     0          
O456     O      0.053400000000     0.575000000000     0.500000000000     0          
C457     C      0.052250000000     0.969820000000     0.500000000000     0          
H459     H      0.087900000000     0.949200000000     0.500000000000     0          
O460     O      0.575000000000     0.053400000000     0.000000000000     0          
C461     C      0.969820000000     0.052250000000     0.000000000000     0          
H463     H      0.949200000000     0.087900000000     0.000000000000     0          
O464     O      0.425000000000     0.946600000000     0.000000000000     0          
C465     C      0.030180000000     0.947750000000     0.000000000000     0          
H467     H      0.050800000000     0.912100000000     0.000000000000     0          
O468     O      0.053400000000     0.425000000000     0.500000000000     0          
C469     C      0.052250000000     0.030180000000     0.500000000000     0          
H471     H      0.087900000000     0.050800000000     0.500000000000     0          
O472     O      0.946600000000     0.575000000000     0.500000000000     0          
C473     C      0.947750000000     0.969820000000     0.500000000000     0          
H475     H      0.912100000000     0.949200000000     0.500000000000     0          
O476     O      0.500000000000     0.053200000000     0.091600000000     0          
O477     O      0.500000000000     0.946800000000     0.091600000000     0          
O478     O      0.946800000000     0.500000000000     0.591600000000     0          
O479     O      0.053200000000     0.500000000000     0.591600000000     0          
O480     O      0.500000000000     0.053200000000     0.908400000000     0          
O482     O      0.053200000000     0.500000000000     0.408400000000     0          
O483     O      0.946800000000     0.500000000000     0.408400000000     0          
C484     C      0.500000000000     0.000000000000     0.235000000000     0          
C485     C      0.500000000000     0.000000000000     0.312800000000     0          
C486     C      0.500000000000     0.000000000000     0.460500000000     0          
C487     C      0.000000000000     0.500000000000     0.735000000000     0          
C488     C      0.000000000000     0.500000000000     0.812800000000     0          
C489     C      0.000000000000     0.500000000000     0.960500000000     0          
C490     C      0.500000000000     0.000000000000     0.765000000000     0          
C491     C      0.500000000000     0.000000000000     0.687200000000     0          
C492     C      0.500000000000     0.000000000000     0.539500000000     0          
C493     C      0.000000000000     0.500000000000     0.265000000000     0          
C494     C      0.000000000000     0.500000000000     0.187200000000     0          
C495     C      0.000000000000     0.500000000000     0.039500000000     0          
C496     C      0.309500000000     0.000000000000     0.000000000000     0          
C497     C      0.245100000000     0.000000000000     0.000000000000     0          
C498     C      0.124800000000     0.000000000000     0.000000000000     0          
C499     C      0.060380000000     0.000000000000     0.000000000000     0          
C500     C      0.690500000000     0.000000000000     0.000000000000     0          
C501     C      0.754900000000     0.000000000000     0.000000000000     0          
C502     C      0.875200000000     0.000000000000     0.000000000000     0          
C503     C      0.939620000000     0.000000000000     0.000000000000     0          
C504     C      0.000000000000     0.309500000000     0.500000000000     0          
C505     C      0.000000000000     0.245100000000     0.500000000000     0          
C506     C      0.000000000000     0.124800000000     0.500000000000     0          
C507     C      0.000000000000     0.060380000000     0.500000000000     0          
C508     C      0.000000000000     0.690500000000     0.500000000000     0          
C509     C      0.000000000000     0.754900000000     0.500000000000     0          
C510     C      0.000000000000     0.875200000000     0.500000000000     0          
C511     C      0.000000000000     0.939620000000     0.500000000000     0          
O481     O      0.500000000000     0.946800000000     0.908400000000     0          


