data_TAXGIL

_audit_creation_method RASPA-1.0
_audit_creation_date 2020-11-2
_audit_author_name 'Rocio Bueno-Perez'

_cell_length_a    23.0984
_cell_length_b    23.0984
_cell_length_c    18.8777
_cell_angle_alpha 90
_cell_angle_beta  90
_cell_angle_gamma 90
_cell_volume      10071.9

_symmetry_cell_setting          triclinic
_symmetry_space_group_name_Hall 'P 1'
_symmetry_space_group_name_H-M  'P 1'
_symmetry_Int_Tables_number     1

_symmetry_equiv_pos_as_xyz 'x,y,z'

loop_
_atom_site_label
_atom_site_type_symbol
_atom_site_fract_x
_atom_site_fract_y
_atom_site_fract_z
_atom_site_charge
F1       F      0.346900000000     0.275600000000     0.109600000000     0          
F2       F      0.376600000000     0.335300000000     0.188500000000     0          
F3       F      0.344300000000     0.365300000000     0.086400000000     0          
F4       F      0.062600000000     0.058500000000     0.100300000000     0          
O5       O      0.078900000000     0.387200000000     0.139900000000     0          
O6       O      0.159300000000     0.442600000000     0.071200000000     0          
C7       C      0.259500000000     0.298500000000     0.228400000000     0          
C8       C      0.275600000000     0.330500000000     0.169100000000     0          
C9       C      0.235200000000     0.365500000000     0.134600000000     0          
H10      H      0.246400000000     0.387400000000     0.094300000000     0          
C11      C      0.178300000000     0.368300000000     0.159500000000     0          
C12      C      0.162200000000     0.336700000000     0.218800000000     0          
H13      H      0.123600000000     0.338800000000     0.235900000000     0          
C14      C      0.202700000000     0.301800000000     0.253300000000     0          
H15      H      0.191600000000     0.280300000000     0.294000000000     0          
C16      C      0.133500000000     0.402700000000     0.120500000000     0          
C17      C      0.336000000000     0.328100000000     0.140000000000     0          
C18      C      0.031600000000     0.030100000000     0.050600000000     0          
H19      H      0.946700000000     0.050600000000     0.914600000000     0          
F20      F      0.653100000000     0.724400000000     0.109600000000     0          
F21      F      0.623400000000     0.664700000000     0.188500000000     0          
F22      F      0.655700000000     0.634700000000     0.086400000000     0          
O24      O      0.921100000000     0.612800000000     0.139900000000     0          
O25      O      0.840700000000     0.557400000000     0.071200000000     0          
C26      C      0.740500000000     0.701500000000     0.228400000000     0          
C27      C      0.724400000000     0.669500000000     0.169100000000     0          
C28      C      0.764800000000     0.634500000000     0.134600000000     0          
H29      H      0.753600000000     0.612600000000     0.094300000000     0          
C30      C      0.821700000000     0.631700000000     0.159500000000     0          
C31      C      0.837800000000     0.663300000000     0.218800000000     0          
H32      H      0.876400000000     0.661200000000     0.235900000000     0          
C33      C      0.797300000000     0.698200000000     0.253300000000     0          
H34      H      0.808400000000     0.719700000000     0.294000000000     0          
C35      C      0.866500000000     0.597300000000     0.120500000000     0          
C36      C      0.664000000000     0.671900000000     0.140000000000     0          
F39      F      0.724400000000     0.346900000000     0.609600000000     0          
F40      F      0.664700000000     0.376600000000     0.688500000000     0          
F41      F      0.634700000000     0.344300000000     0.586400000000     0          
O43      O      0.612800000000     0.078900000000     0.639900000000     0          
O44      O      0.557400000000     0.159300000000     0.571200000000     0          
C45      C      0.701500000000     0.259500000000     0.728400000000     0          
C46      C      0.669500000000     0.275600000000     0.669100000000     0          
C47      C      0.634500000000     0.235200000000     0.634600000000     0          
H48      H      0.612600000000     0.246400000000     0.594300000000     0          
C49      C      0.631700000000     0.178300000000     0.659500000000     0          
C50      C      0.663300000000     0.162200000000     0.718800000000     0          
H51      H      0.661200000000     0.123600000000     0.735900000000     0          
C52      C      0.698200000000     0.202700000000     0.753300000000     0          
H53      H      0.719700000000     0.191600000000     0.794000000000     0          
C54      C      0.597300000000     0.133500000000     0.620500000000     0          
C55      C      0.671900000000     0.336000000000     0.640000000000     0          
F58      F      0.275600000000     0.653100000000     0.609600000000     0          
F59      F      0.335300000000     0.623400000000     0.688500000000     0          
F60      F      0.365300000000     0.655700000000     0.586400000000     0          
F61      F      0.058500000000     0.937400000000     0.600300000000     0          
O62      O      0.387200000000     0.921100000000     0.639900000000     0          
O63      O      0.442600000000     0.840700000000     0.571200000000     0          
C64      C      0.298500000000     0.740500000000     0.728400000000     0          
C65      C      0.330500000000     0.724400000000     0.669100000000     0          
C66      C      0.365500000000     0.764800000000     0.634600000000     0          
H67      H      0.387400000000     0.753600000000     0.594300000000     0          
C68      C      0.368300000000     0.821700000000     0.659500000000     0          
C69      C      0.336700000000     0.837800000000     0.718800000000     0          
H70      H      0.338800000000     0.876400000000     0.735900000000     0          
C71      C      0.301800000000     0.797300000000     0.753300000000     0          
H72      H      0.280300000000     0.808400000000     0.794000000000     0          
C73      C      0.402700000000     0.866500000000     0.620500000000     0          
C74      C      0.328100000000     0.664000000000     0.640000000000     0          
C75      C      0.030100000000     0.968400000000     0.550600000000     0          
H76      H      0.050600000000     0.053300000000     0.414600000000     0          
O78      O      0.921100000000     0.387200000000     0.860100000000     0          
O79      O      0.840700000000     0.442600000000     0.928800000000     0          
C80      C      0.740500000000     0.298500000000     0.771600000000     0          
C81      C      0.724400000000     0.330500000000     0.830900000000     0          
C82      C      0.764800000000     0.365500000000     0.865400000000     0          
H83      H      0.753600000000     0.387400000000     0.905700000000     0          
C84      C      0.821700000000     0.368300000000     0.840500000000     0          
C85      C      0.837800000000     0.336700000000     0.781200000000     0          
H86      H      0.876400000000     0.338800000000     0.764100000000     0          
C87      C      0.797300000000     0.301800000000     0.746700000000     0          
C88      C      0.866500000000     0.402700000000     0.879500000000     0          
C89      C      0.968400000000     0.030100000000     0.949400000000     0          
F90      F      0.779100000000     0.269700000000     0.629400000000     0          
F91      F      0.867400000000     0.285900000000     0.657700000000     0          
F92      F      0.823800000000     0.211300000000     0.699500000000     0          
H93      H      0.685800000000     0.328400000000     0.848000000000     0          
C94      C      0.816400000000     0.267600000000     0.683000000000     0          
O97      O      0.078900000000     0.612800000000     0.860100000000     0          
O98      O      0.159300000000     0.557400000000     0.928800000000     0          
C99      C      0.259500000000     0.701500000000     0.771600000000     0          
C100     C      0.275600000000     0.669500000000     0.830900000000     0          
C101     C      0.235200000000     0.634500000000     0.865400000000     0          
H102     H      0.246400000000     0.612600000000     0.905700000000     0          
C103     C      0.178300000000     0.631700000000     0.840500000000     0          
C104     C      0.162200000000     0.663300000000     0.781200000000     0          
H105     H      0.123600000000     0.661200000000     0.764100000000     0          
C106     C      0.202700000000     0.698200000000     0.746700000000     0          
C107     C      0.133500000000     0.597300000000     0.879500000000     0          
F109     F      0.220900000000     0.730300000000     0.629400000000     0          
F110     F      0.132600000000     0.714100000000     0.657700000000     0          
F111     F      0.176200000000     0.788700000000     0.699500000000     0          
H112     H      0.314200000000     0.671600000000     0.848000000000     0          
C113     C      0.183600000000     0.732400000000     0.683000000000     0          
O116     O      0.387200000000     0.078900000000     0.360100000000     0          
O117     O      0.442600000000     0.159300000000     0.428800000000     0          
C118     C      0.298500000000     0.259500000000     0.271600000000     0          
C119     C      0.330500000000     0.275600000000     0.330900000000     0          
C120     C      0.365500000000     0.235200000000     0.365400000000     0          
H121     H      0.387400000000     0.246400000000     0.405700000000     0          
C122     C      0.368300000000     0.178300000000     0.340500000000     0          
C123     C      0.336700000000     0.162200000000     0.281200000000     0          
H124     H      0.338800000000     0.123600000000     0.264100000000     0          
C125     C      0.301800000000     0.202700000000     0.246700000000     0          
C126     C      0.402700000000     0.133500000000     0.379500000000     0          
C127     C      0.030100000000     0.031600000000     0.449400000000     0          
F128     F      0.269700000000     0.220900000000     0.129400000000     0          
F129     F      0.285900000000     0.132600000000     0.157700000000     0          
F130     F      0.211300000000     0.176200000000     0.199500000000     0          
H131     H      0.328400000000     0.314200000000     0.348000000000     0          
C132     C      0.267600000000     0.183600000000     0.183000000000     0          
O135     O      0.612800000000     0.921100000000     0.360100000000     0          
O136     O      0.557400000000     0.840700000000     0.428800000000     0          
C137     C      0.701500000000     0.740500000000     0.271600000000     0          
C138     C      0.669500000000     0.724400000000     0.330900000000     0          
C139     C      0.634500000000     0.764800000000     0.365400000000     0          
H140     H      0.612600000000     0.753600000000     0.405700000000     0          
C141     C      0.631700000000     0.821700000000     0.340500000000     0          
C142     C      0.663300000000     0.837800000000     0.281200000000     0          
H143     H      0.661200000000     0.876400000000     0.264100000000     0          
C144     C      0.698200000000     0.797300000000     0.246700000000     0          
C145     C      0.597300000000     0.866500000000     0.379500000000     0          
F147     F      0.730300000000     0.779100000000     0.129400000000     0          
F148     F      0.714100000000     0.867400000000     0.157700000000     0          
F149     F      0.788700000000     0.823800000000     0.199500000000     0          
H150     H      0.671600000000     0.685800000000     0.348000000000     0          
C151     C      0.732400000000     0.816400000000     0.183000000000     0          
F153     F      0.653100000000     0.724400000000     0.890400000000     0          
F154     F      0.623400000000     0.664700000000     0.811500000000     0          
F155     F      0.655700000000     0.634700000000     0.913600000000     0          
F156     F      0.937400000000     0.941500000000     0.899700000000     0          
O157     O      0.921100000000     0.612800000000     0.860100000000     0          
O158     O      0.840700000000     0.557400000000     0.928800000000     0          
C159     C      0.740500000000     0.701500000000     0.771600000000     0          
C160     C      0.724400000000     0.669500000000     0.830900000000     0          
C161     C      0.764800000000     0.634500000000     0.865400000000     0          
H162     H      0.753600000000     0.612600000000     0.905700000000     0          
C163     C      0.821700000000     0.631700000000     0.840500000000     0          
C164     C      0.837800000000     0.663300000000     0.781200000000     0          
H165     H      0.876400000000     0.661200000000     0.764100000000     0          
C166     C      0.797300000000     0.698200000000     0.746700000000     0          
H167     H      0.808400000000     0.719700000000     0.706000000000     0          
C168     C      0.866500000000     0.597300000000     0.879500000000     0          
C169     C      0.664000000000     0.671900000000     0.860000000000     0          
C170     C      0.968400000000     0.969900000000     0.949400000000     0          
H171     H      0.053300000000     0.949400000000     0.085400000000     0          
F172     F      0.346900000000     0.275600000000     0.890400000000     0          
F173     F      0.376600000000     0.335300000000     0.811500000000     0          
F174     F      0.344300000000     0.365300000000     0.913600000000     0          
O176     O      0.078900000000     0.387200000000     0.860100000000     0          
O177     O      0.159300000000     0.442600000000     0.928800000000     0          
C178     C      0.259500000000     0.298500000000     0.771600000000     0          
C179     C      0.275600000000     0.330500000000     0.830900000000     0          
C180     C      0.235200000000     0.365500000000     0.865400000000     0          
H181     H      0.246400000000     0.387400000000     0.905700000000     0          
C182     C      0.178300000000     0.368300000000     0.840500000000     0          
C183     C      0.162200000000     0.336700000000     0.781200000000     0          
H184     H      0.123600000000     0.338800000000     0.764100000000     0          
C185     C      0.202700000000     0.301800000000     0.746700000000     0          
H186     H      0.191600000000     0.280300000000     0.706000000000     0          
C187     C      0.133500000000     0.402700000000     0.879500000000     0          
C188     C      0.336000000000     0.328100000000     0.860000000000     0          
F191     F      0.275600000000     0.653100000000     0.390400000000     0          
F192     F      0.335300000000     0.623400000000     0.311500000000     0          
F193     F      0.365300000000     0.655700000000     0.413600000000     0          
O195     O      0.387200000000     0.921100000000     0.360100000000     0          
O196     O      0.442600000000     0.840700000000     0.428800000000     0          
C197     C      0.298500000000     0.740500000000     0.271600000000     0          
C198     C      0.330500000000     0.724400000000     0.330900000000     0          
C199     C      0.365500000000     0.764800000000     0.365400000000     0          
H200     H      0.387400000000     0.753600000000     0.405700000000     0          
C201     C      0.368300000000     0.821700000000     0.340500000000     0          
C202     C      0.336700000000     0.837800000000     0.281200000000     0          
H203     H      0.338800000000     0.876400000000     0.264100000000     0          
C204     C      0.301800000000     0.797300000000     0.246700000000     0          
H205     H      0.280300000000     0.808400000000     0.206000000000     0          
C206     C      0.402700000000     0.866500000000     0.379500000000     0          
C207     C      0.328100000000     0.664000000000     0.360000000000     0          
F210     F      0.724400000000     0.346900000000     0.390400000000     0          
F211     F      0.664700000000     0.376600000000     0.311500000000     0          
F212     F      0.634700000000     0.344300000000     0.413600000000     0          
F213     F      0.941500000000     0.062600000000     0.399700000000     0          
O214     O      0.612800000000     0.078900000000     0.360100000000     0          
O215     O      0.557400000000     0.159300000000     0.428800000000     0          
C216     C      0.701500000000     0.259500000000     0.271600000000     0          
C217     C      0.669500000000     0.275600000000     0.330900000000     0          
C218     C      0.634500000000     0.235200000000     0.365400000000     0          
H219     H      0.612600000000     0.246400000000     0.405700000000     0          
C220     C      0.631700000000     0.178300000000     0.340500000000     0          
C221     C      0.663300000000     0.162200000000     0.281200000000     0          
H222     H      0.661200000000     0.123600000000     0.264100000000     0          
C223     C      0.698200000000     0.202700000000     0.246700000000     0          
H224     H      0.719700000000     0.191600000000     0.206000000000     0          
C225     C      0.597300000000     0.133500000000     0.379500000000     0          
C226     C      0.671900000000     0.336000000000     0.360000000000     0          
C227     C      0.969900000000     0.031600000000     0.449400000000     0          
H228     H      0.949400000000     0.946700000000     0.585400000000     0          
O230     O      0.078900000000     0.612800000000     0.139900000000     0          
O231     O      0.159300000000     0.557400000000     0.071200000000     0          
C232     C      0.259500000000     0.701500000000     0.228400000000     0          
C233     C      0.275600000000     0.669500000000     0.169100000000     0          
C234     C      0.235200000000     0.634500000000     0.134600000000     0          
H235     H      0.246400000000     0.612600000000     0.094300000000     0          
C236     C      0.178300000000     0.631700000000     0.159500000000     0          
C237     C      0.162200000000     0.663300000000     0.218800000000     0          
H238     H      0.123600000000     0.661200000000     0.235900000000     0          
C239     C      0.202700000000     0.698200000000     0.253300000000     0          
C240     C      0.133500000000     0.597300000000     0.120500000000     0          
C241     C      0.031600000000     0.969900000000     0.050600000000     0          
F242     F      0.220900000000     0.730300000000     0.370600000000     0          
F243     F      0.132600000000     0.714100000000     0.342300000000     0          
F244     F      0.176200000000     0.788700000000     0.300500000000     0          
H245     H      0.314200000000     0.671600000000     0.152000000000     0          
C246     C      0.183600000000     0.732400000000     0.317000000000     0          
O249     O      0.921100000000     0.387200000000     0.139900000000     0          
O250     O      0.840700000000     0.442600000000     0.071200000000     0          
C251     C      0.740500000000     0.298500000000     0.228400000000     0          
C252     C      0.724400000000     0.330500000000     0.169100000000     0          
C253     C      0.764800000000     0.365500000000     0.134600000000     0          
H254     H      0.753600000000     0.387400000000     0.094300000000     0          
C255     C      0.821700000000     0.368300000000     0.159500000000     0          
C256     C      0.837800000000     0.336700000000     0.218800000000     0          
H257     H      0.876400000000     0.338800000000     0.235900000000     0          
C258     C      0.797300000000     0.301800000000     0.253300000000     0          
C259     C      0.866500000000     0.402700000000     0.120500000000     0          
F261     F      0.779100000000     0.269700000000     0.370600000000     0          
F262     F      0.867400000000     0.285900000000     0.342300000000     0          
F263     F      0.823800000000     0.211300000000     0.300500000000     0          
H264     H      0.685800000000     0.328400000000     0.152000000000     0          
C265     C      0.816400000000     0.267600000000     0.317000000000     0          
O268     O      0.612800000000     0.921100000000     0.639900000000     0          
O269     O      0.557400000000     0.840700000000     0.571200000000     0          
C270     C      0.701500000000     0.740500000000     0.728400000000     0          
C271     C      0.669500000000     0.724400000000     0.669100000000     0          
C272     C      0.634500000000     0.764800000000     0.634600000000     0          
H273     H      0.612600000000     0.753600000000     0.594300000000     0          
C274     C      0.631700000000     0.821700000000     0.659500000000     0          
C275     C      0.663300000000     0.837800000000     0.718800000000     0          
H276     H      0.661200000000     0.876400000000     0.735900000000     0          
C277     C      0.698200000000     0.797300000000     0.753300000000     0          
C278     C      0.597300000000     0.866500000000     0.620500000000     0          
C279     C      0.969900000000     0.968400000000     0.550600000000     0          
F280     F      0.730300000000     0.779100000000     0.870600000000     0          
F281     F      0.714100000000     0.867400000000     0.842300000000     0          
F282     F      0.788700000000     0.823800000000     0.800500000000     0          
H283     H      0.671600000000     0.685800000000     0.652000000000     0          
C284     C      0.732400000000     0.816400000000     0.817000000000     0          
O287     O      0.387200000000     0.078900000000     0.639900000000     0          
O288     O      0.442600000000     0.159300000000     0.571200000000     0          
C289     C      0.298500000000     0.259500000000     0.728400000000     0          
C290     C      0.330500000000     0.275600000000     0.669100000000     0          
C291     C      0.365500000000     0.235200000000     0.634600000000     0          
H292     H      0.387400000000     0.246400000000     0.594300000000     0          
C293     C      0.368300000000     0.178300000000     0.659500000000     0          
C294     C      0.336700000000     0.162200000000     0.718800000000     0          
H295     H      0.338800000000     0.123600000000     0.735900000000     0          
C296     C      0.301800000000     0.202700000000     0.753300000000     0          
C297     C      0.402700000000     0.133500000000     0.620500000000     0          
F299     F      0.269700000000     0.220900000000     0.870600000000     0          
F300     F      0.285900000000     0.132600000000     0.842300000000     0          
F301     F      0.211300000000     0.176200000000     0.800500000000     0          
H302     H      0.328400000000     0.314200000000     0.652000000000     0          
C303     C      0.267600000000     0.183600000000     0.817000000000     0          
Zr305    Zr     0.000000000000     0.424770000000     0.092220000000     0          
O306     O      0.000000000000     0.451500000000     0.205000000000     0          
O307     O      0.000000000000     0.602000000000     0.463000000000     0          
H308     H      0.000000000000     0.630500000000     0.435300000000     0          
O309     O      0.000000000000     0.333100000000     0.059800000000     0          
C310     C      0.000000000000     0.552000000000     0.424900000000     0          
C311     C      0.000000000000     0.552000000000     0.351100000000     0          
H312     H      0.000000000000     0.587600000000     0.326000000000     0          
C313     C      0.000000000000     0.215700000000     0.063700000000     0          
H314     H      0.000000000000     0.236300000000     0.107200000000     0          
C315     C      0.000000000000     0.155500000000     0.063900000000     0          
H316     H      0.000000000000     0.135000000000     0.107500000000     0          
Zr317    Zr     0.000000000000     0.575230000000     0.092220000000     0          
O318     O      0.000000000000     0.548500000000     0.205000000000     0          
O319     O      0.000000000000     0.666900000000     0.059800000000     0          
C320     C      0.000000000000     0.448000000000     0.424900000000     0          
C321     C      0.000000000000     0.448000000000     0.351100000000     0          
H322     H      0.000000000000     0.412400000000     0.326000000000     0          
C323     C      0.000000000000     0.784300000000     0.063700000000     0          
H324     H      0.000000000000     0.763700000000     0.107200000000     0          
C325     C      0.000000000000     0.844500000000     0.063900000000     0          
H326     H      0.000000000000     0.865000000000     0.107500000000     0          
H327     H      0.000000000000     0.412400000000     0.450000000000     0          
Zr328    Zr     0.575230000000     0.000000000000     0.592220000000     0          
O329     O      0.548500000000     0.000000000000     0.705000000000     0          
O330     O      0.398000000000     0.000000000000     0.963000000000     0          
H331     H      0.369500000000     0.000000000000     0.935300000000     0          
O332     O      0.666900000000     0.000000000000     0.559800000000     0          
C333     C      0.448000000000     0.000000000000     0.924900000000     0          
C334     C      0.448000000000     0.000000000000     0.851100000000     0          
H335     H      0.412400000000     0.000000000000     0.826000000000     0          
C336     C      0.784300000000     0.000000000000     0.563700000000     0          
H337     H      0.763700000000     0.000000000000     0.607200000000     0          
C338     C      0.844500000000     0.000000000000     0.563900000000     0          
H339     H      0.865000000000     0.000000000000     0.607500000000     0          
Zr341    Zr     0.424770000000     0.000000000000     0.592220000000     0          
O342     O      0.451500000000     0.000000000000     0.705000000000     0          
O345     O      0.333100000000     0.000000000000     0.559800000000     0          
C346     C      0.552000000000     0.000000000000     0.924900000000     0          
C347     C      0.552000000000     0.000000000000     0.851100000000     0          
H348     H      0.587600000000     0.000000000000     0.826000000000     0          
C349     C      0.215700000000     0.000000000000     0.563700000000     0          
H350     H      0.236300000000     0.000000000000     0.607200000000     0          
C351     C      0.155500000000     0.000000000000     0.563900000000     0          
H352     H      0.135000000000     0.000000000000     0.607500000000     0          
H353     H      0.587600000000     0.000000000000     0.950000000000     0          
Zr354    Zr     0.000000000000     0.424770000000     0.907780000000     0          
O355     O      0.000000000000     0.451500000000     0.795000000000     0          
O356     O      0.000000000000     0.333100000000     0.940200000000     0          
C357     C      0.000000000000     0.552000000000     0.575100000000     0          
C358     C      0.000000000000     0.552000000000     0.648900000000     0          
H359     H      0.000000000000     0.587600000000     0.674000000000     0          
C360     C      0.000000000000     0.215700000000     0.936300000000     0          
H361     H      0.000000000000     0.236300000000     0.892800000000     0          
C362     C      0.000000000000     0.155500000000     0.936100000000     0          
H363     H      0.000000000000     0.135000000000     0.892500000000     0          
H364     H      0.000000000000     0.587600000000     0.550000000000     0          
Zr365    Zr     0.000000000000     0.575230000000     0.907780000000     0          
O366     O      0.000000000000     0.548500000000     0.795000000000     0          
O367     O      0.000000000000     0.398000000000     0.537000000000     0          
H368     H      0.000000000000     0.369500000000     0.564700000000     0          
O369     O      0.000000000000     0.666900000000     0.940200000000     0          
C370     C      0.000000000000     0.448000000000     0.575100000000     0          
C371     C      0.000000000000     0.448000000000     0.648900000000     0          
H372     H      0.000000000000     0.412400000000     0.674000000000     0          
C373     C      0.000000000000     0.784300000000     0.936300000000     0          
H374     H      0.000000000000     0.763700000000     0.892800000000     0          
C375     C      0.000000000000     0.844500000000     0.936100000000     0          
H376     H      0.000000000000     0.865000000000     0.892500000000     0          
Zr377    Zr     0.424770000000     0.000000000000     0.407780000000     0          
O378     O      0.451500000000     0.000000000000     0.295000000000     0          
O379     O      0.602000000000     0.000000000000     0.037000000000     0          
H380     H      0.630500000000     0.000000000000     0.064700000000     0          
O381     O      0.333100000000     0.000000000000     0.440200000000     0          
C382     C      0.552000000000     0.000000000000     0.075100000000     0          
C383     C      0.552000000000     0.000000000000     0.148900000000     0          
H384     H      0.587600000000     0.000000000000     0.174000000000     0          
C385     C      0.215700000000     0.000000000000     0.436300000000     0          
H386     H      0.236300000000     0.000000000000     0.392800000000     0          
C387     C      0.155500000000     0.000000000000     0.436100000000     0          
H388     H      0.135000000000     0.000000000000     0.392500000000     0          
Zr390    Zr     0.575230000000     0.000000000000     0.407780000000     0          
O391     O      0.548500000000     0.000000000000     0.295000000000     0          
O394     O      0.666900000000     0.000000000000     0.440200000000     0          
C395     C      0.448000000000     0.000000000000     0.075100000000     0          
C396     C      0.448000000000     0.000000000000     0.148900000000     0          
H397     H      0.412400000000     0.000000000000     0.174000000000     0          
C398     C      0.784300000000     0.000000000000     0.436300000000     0          
H399     H      0.763700000000     0.000000000000     0.392800000000     0          
C400     C      0.844500000000     0.000000000000     0.436100000000     0          
H401     H      0.865000000000     0.000000000000     0.392500000000     0          
H402     H      0.412400000000     0.000000000000     0.050000000000     0          
Zr403    Zr     0.108910000000     0.500000000000     0.000000000000     0          
Zr404    Zr     0.891090000000     0.500000000000     0.000000000000     0          
Zr405    Zr     0.500000000000     0.108910000000     0.500000000000     0          
Zr406    Zr     0.500000000000     0.891090000000     0.500000000000     0          
O407     O      0.054300000000     0.424300000000     0.000000000000     0          
O408     O      0.945700000000     0.575700000000     0.000000000000     0          
O409     O      0.575700000000     0.054300000000     0.500000000000     0          
O410     O      0.424300000000     0.945700000000     0.500000000000     0          
O411     O      0.945700000000     0.424300000000     0.000000000000     0          
O412     O      0.054300000000     0.575700000000     0.000000000000     0          
O413     O      0.424300000000     0.054300000000     0.500000000000     0          
O414     O      0.575700000000     0.945700000000     0.500000000000     0          
O415     O      0.054700000000     0.500000000000     0.091700000000     0          
O416     O      0.945300000000     0.500000000000     0.091700000000     0          
O417     O      0.500000000000     0.054700000000     0.591700000000     0          
O418     O      0.500000000000     0.945300000000     0.591700000000     0          
O420     O      0.054700000000     0.500000000000     0.908300000000     0          
O421     O      0.500000000000     0.054700000000     0.408300000000     0          
O422     O      0.500000000000     0.945300000000     0.408300000000     0          
C423     C      0.000000000000     0.500000000000     0.461700000000     0          
C424     C      0.000000000000     0.500000000000     0.314200000000     0          
C425     C      0.000000000000     0.500000000000     0.235200000000     0          
C426     C      0.500000000000     0.000000000000     0.961700000000     0          
C427     C      0.500000000000     0.000000000000     0.814200000000     0          
C428     C      0.500000000000     0.000000000000     0.735200000000     0          
C429     C      0.000000000000     0.500000000000     0.538300000000     0          
C430     C      0.000000000000     0.500000000000     0.685800000000     0          
C431     C      0.000000000000     0.500000000000     0.764800000000     0          
C432     C      0.500000000000     0.000000000000     0.038300000000     0          
C433     C      0.500000000000     0.000000000000     0.185800000000     0          
C434     C      0.500000000000     0.000000000000     0.264800000000     0          
C435     C      0.000000000000     0.308800000000     0.000000000000     0          
C436     C      0.000000000000     0.245800000000     0.000000000000     0          
C437     C      0.000000000000     0.125400000000     0.000000000000     0          
C438     C      0.000000000000     0.060260000000     0.000000000000     0          
C439     C      0.000000000000     0.691200000000     0.000000000000     0          
C440     C      0.000000000000     0.754200000000     0.000000000000     0          
C441     C      0.000000000000     0.874600000000     0.000000000000     0          
C442     C      0.000000000000     0.939740000000     0.000000000000     0          
C443     C      0.691200000000     0.000000000000     0.500000000000     0          
C444     C      0.754200000000     0.000000000000     0.500000000000     0          
C445     C      0.874600000000     0.000000000000     0.500000000000     0          
C446     C      0.939740000000     0.000000000000     0.500000000000     0          
C447     C      0.308800000000     0.000000000000     0.500000000000     0          
C448     C      0.245800000000     0.000000000000     0.500000000000     0          
C449     C      0.125400000000     0.000000000000     0.500000000000     0          
C450     C      0.060260000000     0.000000000000     0.500000000000     0          
O419     O      0.945300000000     0.500000000000     0.908300000000     0          


