data_TEPWUJ

_audit_creation_method RASPA-1.0
_audit_creation_date 2020-11-2
_audit_author_name 'Rocio Bueno-Perez'

_cell_length_a    20.6819
_cell_length_b    20.6819
_cell_length_c    20.6819
_cell_angle_alpha 90
_cell_angle_beta  90
_cell_angle_gamma 90
_cell_volume      8846.5

_symmetry_cell_setting          triclinic
_symmetry_space_group_name_Hall 'P 1'
_symmetry_space_group_name_H-M  'P 1'
_symmetry_Int_Tables_number     1

_symmetry_equiv_pos_as_xyz 'x,y,z'

loop_
_atom_site_label
_atom_site_type_symbol
_atom_site_fract_x
_atom_site_fract_y
_atom_site_fract_z
_atom_site_charge
Zr1      Zr     0.119500000000     0.000000000000     0.000000000000     0          
Zr2      Zr     0.119500000000     0.500000000000     0.500000000000     0          
Zr3      Zr     0.619500000000     0.000000000000     0.500000000000     0          
Zr4      Zr     0.619500000000     0.500000000000     0.000000000000     0          
Zr5      Zr     0.880500000000     0.000000000000     0.000000000000     0          
Zr6      Zr     0.880500000000     0.500000000000     0.500000000000     0          
Zr7      Zr     0.380500000000     0.000000000000     0.500000000000     0          
Zr8      Zr     0.380500000000     0.500000000000     0.000000000000     0          
Zr9      Zr     0.000000000000     0.119500000000     0.000000000000     0          
Zr10     Zr     0.000000000000     0.619500000000     0.500000000000     0          
Zr11     Zr     0.500000000000     0.119500000000     0.500000000000     0          
Zr12     Zr     0.500000000000     0.619500000000     0.000000000000     0          
Zr13     Zr     0.000000000000     0.880500000000     0.000000000000     0          
Zr14     Zr     0.000000000000     0.380500000000     0.500000000000     0          
Zr15     Zr     0.500000000000     0.880500000000     0.500000000000     0          
Zr16     Zr     0.500000000000     0.380500000000     0.000000000000     0          
Zr17     Zr     0.000000000000     0.000000000000     0.119500000000     0          
Zr18     Zr     0.000000000000     0.500000000000     0.619500000000     0          
Zr19     Zr     0.500000000000     0.000000000000     0.619500000000     0          
Zr20     Zr     0.500000000000     0.500000000000     0.119500000000     0          
Zr21     Zr     0.000000000000     0.000000000000     0.880500000000     0          
Zr22     Zr     0.000000000000     0.500000000000     0.380500000000     0          
Zr23     Zr     0.500000000000     0.000000000000     0.380500000000     0          
Zr24     Zr     0.500000000000     0.500000000000     0.880500000000     0          
O25      O      0.176350000000     0.000000000000     0.093270000000     0          
C26      C      0.266200000000     0.000000000000     0.186590000000     0          
O27      O      0.176350000000     0.500000000000     0.593270000000     0          
C28      C      0.266200000000     0.500000000000     0.686590000000     0          
O29      O      0.676350000000     0.000000000000     0.593270000000     0          
C30      C      0.766200000000     0.000000000000     0.686590000000     0          
O31      O      0.676350000000     0.500000000000     0.093270000000     0          
C32      C      0.766200000000     0.500000000000     0.186590000000     0          
O33      O      0.823650000000     0.000000000000     0.093270000000     0          
C34      C      0.733800000000     0.000000000000     0.186590000000     0          
O35      O      0.823650000000     0.500000000000     0.593270000000     0          
C36      C      0.733800000000     0.500000000000     0.686590000000     0          
O37      O      0.323650000000     0.000000000000     0.593270000000     0          
C38      C      0.233800000000     0.000000000000     0.686590000000     0          
O39      O      0.323650000000     0.500000000000     0.093270000000     0          
C40      C      0.233800000000     0.500000000000     0.186590000000     0          
O41      O      0.823650000000     0.000000000000     0.906730000000     0          
N42      N      0.733800000000     0.000000000000     0.813410000000     0          
O43      O      0.823650000000     0.500000000000     0.406730000000     0          
N44      N      0.733800000000     0.500000000000     0.313410000000     0          
O45      O      0.323650000000     0.000000000000     0.406730000000     0          
C46      C      0.233800000000     0.000000000000     0.313410000000     0          
O47      O      0.323650000000     0.500000000000     0.906730000000     0          
C48      C      0.233800000000     0.500000000000     0.813410000000     0          
O49      O      0.176350000000     0.000000000000     0.906730000000     0          
C50      C      0.266200000000     0.000000000000     0.813410000000     0          
O51      O      0.176350000000     0.500000000000     0.406730000000     0          
C52      C      0.266200000000     0.500000000000     0.313410000000     0          
O53      O      0.676350000000     0.000000000000     0.406730000000     0          
C54      C      0.766200000000     0.000000000000     0.313410000000     0          
O55      O      0.676350000000     0.500000000000     0.906730000000     0          
C56      C      0.766200000000     0.500000000000     0.813410000000     0          
O57      O      0.093270000000     0.176350000000     0.000000000000     0          
C58      C      0.186590000000     0.266200000000     0.000000000000     0          
O59      O      0.093270000000     0.676350000000     0.500000000000     0          
C60      C      0.186590000000     0.766200000000     0.500000000000     0          
O61      O      0.593270000000     0.176350000000     0.500000000000     0          
C62      C      0.686590000000     0.266200000000     0.500000000000     0          
O63      O      0.593270000000     0.676350000000     0.000000000000     0          
C64      C      0.686590000000     0.766200000000     0.000000000000     0          
O65      O      0.093270000000     0.823650000000     0.000000000000     0          
C66      C      0.186590000000     0.733800000000     0.000000000000     0          
O67      O      0.093270000000     0.323650000000     0.500000000000     0          
N68      N      0.186590000000     0.233800000000     0.500000000000     0          
O69      O      0.593270000000     0.823650000000     0.500000000000     0          
C70      C      0.686590000000     0.733800000000     0.500000000000     0          
O71      O      0.593270000000     0.323650000000     0.000000000000     0          
C72      C      0.686590000000     0.233800000000     0.000000000000     0          
O73      O      0.906730000000     0.823650000000     0.000000000000     0          
C74      C      0.813410000000     0.733800000000     0.000000000000     0          
O75      O      0.906730000000     0.323650000000     0.500000000000     0          
C76      C      0.813410000000     0.233800000000     0.500000000000     0          
O77      O      0.406730000000     0.823650000000     0.500000000000     0          
N78      N      0.313410000000     0.733800000000     0.500000000000     0          
O79      O      0.406730000000     0.323650000000     0.000000000000     0          
N80      N      0.313410000000     0.233800000000     0.000000000000     0          
O81      O      0.906730000000     0.176350000000     0.000000000000     0          
N82      N      0.813410000000     0.266200000000     0.000000000000     0          
O83      O      0.906730000000     0.676350000000     0.500000000000     0          
C84      C      0.813410000000     0.766200000000     0.500000000000     0          
O85      O      0.406730000000     0.176350000000     0.500000000000     0          
C86      C      0.313410000000     0.266200000000     0.500000000000     0          
O87      O      0.406730000000     0.676350000000     0.000000000000     0          
C88      C      0.313410000000     0.766200000000     0.000000000000     0          
O89      O      0.000000000000     0.093270000000     0.176350000000     0          
C90      C      0.000000000000     0.186590000000     0.266200000000     0          
O91      O      0.000000000000     0.593270000000     0.676350000000     0          
N92      N      0.000000000000     0.686590000000     0.766200000000     0          
O93      O      0.500000000000     0.093270000000     0.676350000000     0          
N94      N      0.500000000000     0.186590000000     0.766200000000     0          
O95      O      0.500000000000     0.593270000000     0.176350000000     0          
C96      C      0.500000000000     0.686590000000     0.266200000000     0          
O97      O      0.000000000000     0.093270000000     0.823650000000     0          
C98      C      0.000000000000     0.186590000000     0.733800000000     0          
O99      O      0.000000000000     0.593270000000     0.323650000000     0          
C100     C      0.000000000000     0.686590000000     0.233800000000     0          
O101     O      0.500000000000     0.093270000000     0.323650000000     0          
N102     N      0.500000000000     0.186590000000     0.233800000000     0          
O103     O      0.500000000000     0.593270000000     0.823650000000     0          
C104     C      0.500000000000     0.686590000000     0.733800000000     0          
O105     O      0.000000000000     0.906730000000     0.823650000000     0          
C106     C      0.000000000000     0.813410000000     0.733800000000     0          
O107     O      0.000000000000     0.406730000000     0.323650000000     0          
N108     N      0.000000000000     0.313410000000     0.233800000000     0          
O109     O      0.500000000000     0.906730000000     0.323650000000     0          
N110     N      0.500000000000     0.813410000000     0.233800000000     0          
O111     O      0.500000000000     0.406730000000     0.823650000000     0          
C112     C      0.500000000000     0.313410000000     0.733800000000     0          
O113     O      0.000000000000     0.906730000000     0.176350000000     0          
N114     N      0.000000000000     0.813410000000     0.266200000000     0          
O115     O      0.000000000000     0.406730000000     0.676350000000     0          
C116     C      0.000000000000     0.313410000000     0.766200000000     0          
O117     O      0.500000000000     0.906730000000     0.676350000000     0          
N118     N      0.500000000000     0.813410000000     0.766200000000     0          
O119     O      0.500000000000     0.406730000000     0.176350000000     0          
C120     C      0.500000000000     0.313410000000     0.266200000000     0          
O121     O      0.000000000000     0.176350000000     0.906730000000     0          
C122     C      0.000000000000     0.266200000000     0.813410000000     0          
O123     O      0.000000000000     0.676350000000     0.406730000000     0          
C124     C      0.000000000000     0.766200000000     0.313410000000     0          
O125     O      0.500000000000     0.176350000000     0.406730000000     0          
C126     C      0.500000000000     0.266200000000     0.313410000000     0          
O127     O      0.500000000000     0.676350000000     0.906730000000     0          
C128     C      0.500000000000     0.766200000000     0.813410000000     0          
O129     O      0.000000000000     0.823650000000     0.906730000000     0          
C130     C      0.000000000000     0.733800000000     0.813410000000     0          
O131     O      0.000000000000     0.323650000000     0.406730000000     0          
C132     C      0.000000000000     0.233800000000     0.313410000000     0          
O133     O      0.500000000000     0.823650000000     0.406730000000     0          
C134     C      0.500000000000     0.733800000000     0.313410000000     0          
O135     O      0.500000000000     0.323650000000     0.906730000000     0          
C136     C      0.500000000000     0.233800000000     0.813410000000     0          
O137     O      0.000000000000     0.823650000000     0.093270000000     0          
C138     C      0.000000000000     0.733800000000     0.186590000000     0          
O139     O      0.000000000000     0.323650000000     0.593270000000     0          
N140     N      0.000000000000     0.233800000000     0.686590000000     0          
O141     O      0.500000000000     0.823650000000     0.593270000000     0          
C142     C      0.500000000000     0.733800000000     0.686590000000     0          
O143     O      0.500000000000     0.323650000000     0.093270000000     0          
C144     C      0.500000000000     0.233800000000     0.186590000000     0          
O145     O      0.000000000000     0.176350000000     0.093270000000     0          
C146     C      0.000000000000     0.266200000000     0.186590000000     0          
O147     O      0.000000000000     0.676350000000     0.593270000000     0          
C148     C      0.000000000000     0.766200000000     0.686590000000     0          
O149     O      0.500000000000     0.176350000000     0.593270000000     0          
C150     C      0.500000000000     0.266200000000     0.686590000000     0          
O151     O      0.500000000000     0.676350000000     0.093270000000     0          
C152     C      0.500000000000     0.766200000000     0.186590000000     0          
O153     O      0.176350000000     0.093270000000     0.000000000000     0          
C154     C      0.266200000000     0.186590000000     0.000000000000     0          
O155     O      0.176350000000     0.593270000000     0.500000000000     0          
C156     C      0.266200000000     0.686590000000     0.500000000000     0          
O157     O      0.676350000000     0.093270000000     0.500000000000     0          
C158     C      0.766200000000     0.186590000000     0.500000000000     0          
O159     O      0.676350000000     0.593270000000     0.000000000000     0          
N160     N      0.766200000000     0.686590000000     0.000000000000     0          
O161     O      0.823650000000     0.093270000000     0.000000000000     0          
C162     C      0.733800000000     0.186590000000     0.000000000000     0          
O163     O      0.823650000000     0.593270000000     0.500000000000     0          
C164     C      0.733800000000     0.686590000000     0.500000000000     0          
O165     O      0.323650000000     0.093270000000     0.500000000000     0          
C166     C      0.233800000000     0.186590000000     0.500000000000     0          
O167     O      0.323650000000     0.593270000000     0.000000000000     0          
C168     C      0.233800000000     0.686590000000     0.000000000000     0          
O169     O      0.823650000000     0.906730000000     0.000000000000     0          
C170     C      0.733800000000     0.813410000000     0.000000000000     0          
O171     O      0.823650000000     0.406730000000     0.500000000000     0          
N172     N      0.733800000000     0.313410000000     0.500000000000     0          
O173     O      0.323650000000     0.906730000000     0.500000000000     0          
C174     C      0.233800000000     0.813410000000     0.500000000000     0          
O175     O      0.323650000000     0.406730000000     0.000000000000     0          
C176     C      0.233800000000     0.313410000000     0.000000000000     0          
O177     O      0.176350000000     0.906730000000     0.000000000000     0          
N178     N      0.266200000000     0.813410000000     0.000000000000     0          
O179     O      0.176350000000     0.406730000000     0.500000000000     0          
C180     C      0.266200000000     0.313410000000     0.500000000000     0          
O181     O      0.676350000000     0.906730000000     0.500000000000     0          
N182     N      0.766200000000     0.813410000000     0.500000000000     0          
O183     O      0.676350000000     0.406730000000     0.000000000000     0          
C184     C      0.766200000000     0.313410000000     0.000000000000     0          
O185     O      0.093270000000     0.000000000000     0.823650000000     0          
C186     C      0.186590000000     0.000000000000     0.733800000000     0          
O187     O      0.093270000000     0.500000000000     0.323650000000     0          
N188     N      0.186590000000     0.500000000000     0.233800000000     0          
O189     O      0.593270000000     0.000000000000     0.323650000000     0          
C190     C      0.686590000000     0.000000000000     0.233800000000     0          
O191     O      0.593270000000     0.500000000000     0.823650000000     0          
C192     C      0.686590000000     0.500000000000     0.733800000000     0          
O193     O      0.093270000000     0.000000000000     0.176350000000     0          
C194     C      0.186590000000     0.000000000000     0.266200000000     0          
O195     O      0.093270000000     0.500000000000     0.676350000000     0          
C196     C      0.186590000000     0.500000000000     0.766200000000     0          
O197     O      0.593270000000     0.000000000000     0.676350000000     0          
C198     C      0.686590000000     0.000000000000     0.766200000000     0          
O199     O      0.593270000000     0.500000000000     0.176350000000     0          
C200     C      0.686590000000     0.500000000000     0.266200000000     0          
O201     O      0.906730000000     0.000000000000     0.176350000000     0          
N202     N      0.813410000000     0.000000000000     0.266200000000     0          
O203     O      0.906730000000     0.500000000000     0.676350000000     0          
N204     N      0.813410000000     0.500000000000     0.766200000000     0          
O205     O      0.406730000000     0.000000000000     0.676350000000     0          
N206     N      0.313410000000     0.000000000000     0.766200000000     0          
O207     O      0.406730000000     0.500000000000     0.176350000000     0          
C208     C      0.313410000000     0.500000000000     0.266200000000     0          
O209     O      0.906730000000     0.000000000000     0.823650000000     0          
C210     C      0.813410000000     0.000000000000     0.733800000000     0          
O211     O      0.906730000000     0.500000000000     0.323650000000     0          
C212     C      0.813410000000     0.500000000000     0.233800000000     0          
O213     O      0.406730000000     0.000000000000     0.323650000000     0          
N214     N      0.313410000000     0.000000000000     0.233800000000     0          
O215     O      0.406730000000     0.500000000000     0.823650000000     0          
N216     N      0.313410000000     0.500000000000     0.733800000000     0          
O217     O      0.058610000000     0.941390000000     0.941390000000     0          
O218     O      0.058610000000     0.441390000000     0.441390000000     0          
O219     O      0.558610000000     0.941390000000     0.441390000000     0          
O220     O      0.558610000000     0.441390000000     0.941390000000     0          
O221     O      0.941390000000     0.058610000000     0.941390000000     0          
O222     O      0.941390000000     0.558610000000     0.441390000000     0          
O223     O      0.441390000000     0.058610000000     0.441390000000     0          
O224     O      0.441390000000     0.558610000000     0.941390000000     0          
O225     O      0.941390000000     0.941390000000     0.058610000000     0          
O226     O      0.941390000000     0.441390000000     0.558610000000     0          
O227     O      0.441390000000     0.941390000000     0.558610000000     0          
O228     O      0.441390000000     0.441390000000     0.058610000000     0          
O229     O      0.058610000000     0.058610000000     0.058610000000     0          
O230     O      0.058610000000     0.558610000000     0.558610000000     0          
O231     O      0.558610000000     0.058610000000     0.558610000000     0          
O232     O      0.558610000000     0.558610000000     0.058610000000     0          
O233     O      0.941390000000     0.058610000000     0.058610000000     0          
O234     O      0.941390000000     0.558610000000     0.558610000000     0          
O235     O      0.441390000000     0.058610000000     0.558610000000     0          
O236     O      0.441390000000     0.558610000000     0.058610000000     0          
O237     O      0.058610000000     0.941390000000     0.058610000000     0          
O238     O      0.058610000000     0.441390000000     0.558610000000     0          
O239     O      0.558610000000     0.941390000000     0.558610000000     0          
O240     O      0.558610000000     0.441390000000     0.058610000000     0          
O241     O      0.941390000000     0.941390000000     0.941390000000     0          
O242     O      0.941390000000     0.441390000000     0.441390000000     0          
O243     O      0.441390000000     0.941390000000     0.441390000000     0          
O244     O      0.441390000000     0.441390000000     0.941390000000     0          
O245     O      0.058610000000     0.058610000000     0.941390000000     0          
O246     O      0.058610000000     0.558610000000     0.441390000000     0          
O247     O      0.558610000000     0.058610000000     0.441390000000     0          
O248     O      0.558610000000     0.558610000000     0.941390000000     0          
C249     C      0.148670000000     0.000000000000     0.148670000000     0          
C250     C      0.200590000000     0.000000000000     0.200590000000     0          
C251     C      0.148670000000     0.500000000000     0.648670000000     0          
C252     C      0.200590000000     0.500000000000     0.700590000000     0          
C253     C      0.648670000000     0.000000000000     0.648670000000     0          
C254     C      0.700590000000     0.000000000000     0.700590000000     0          
C255     C      0.648670000000     0.500000000000     0.148670000000     0          
C256     C      0.700590000000     0.500000000000     0.200590000000     0          
C257     C      0.851330000000     0.000000000000     0.148670000000     0          
C258     C      0.799410000000     0.000000000000     0.200590000000     0          
C259     C      0.851330000000     0.500000000000     0.648670000000     0          
C260     C      0.799410000000     0.500000000000     0.700590000000     0          
C261     C      0.351330000000     0.000000000000     0.648670000000     0          
C262     C      0.299410000000     0.000000000000     0.700590000000     0          
C263     C      0.351330000000     0.500000000000     0.148670000000     0          
C264     C      0.299410000000     0.500000000000     0.200590000000     0          
C265     C      0.851330000000     0.000000000000     0.851330000000     0          
C266     C      0.799410000000     0.000000000000     0.799410000000     0          
C267     C      0.851330000000     0.500000000000     0.351330000000     0          
C268     C      0.799410000000     0.500000000000     0.299410000000     0          
C269     C      0.351330000000     0.000000000000     0.351330000000     0          
C270     C      0.299410000000     0.000000000000     0.299410000000     0          
C271     C      0.351330000000     0.500000000000     0.851330000000     0          
C272     C      0.299410000000     0.500000000000     0.799410000000     0          
C273     C      0.148670000000     0.000000000000     0.851330000000     0          
C274     C      0.200590000000     0.000000000000     0.799410000000     0          
C275     C      0.148670000000     0.500000000000     0.351330000000     0          
C276     C      0.200590000000     0.500000000000     0.299410000000     0          
C277     C      0.648670000000     0.000000000000     0.351330000000     0          
C278     C      0.700590000000     0.000000000000     0.299410000000     0          
C279     C      0.648670000000     0.500000000000     0.851330000000     0          
C280     C      0.700590000000     0.500000000000     0.799410000000     0          
C281     C      0.148670000000     0.148670000000     0.000000000000     0          
C282     C      0.200590000000     0.200590000000     0.000000000000     0          
C283     C      0.148670000000     0.648670000000     0.500000000000     0          
C284     C      0.200590000000     0.700590000000     0.500000000000     0          
C285     C      0.648670000000     0.148670000000     0.500000000000     0          
C286     C      0.700590000000     0.200590000000     0.500000000000     0          
C287     C      0.648670000000     0.648670000000     0.000000000000     0          
C288     C      0.700590000000     0.700590000000     0.000000000000     0          
C289     C      0.148670000000     0.851330000000     0.000000000000     0          
C290     C      0.200590000000     0.799410000000     0.000000000000     0          
C291     C      0.148670000000     0.351330000000     0.500000000000     0          
C292     C      0.200590000000     0.299410000000     0.500000000000     0          
C293     C      0.648670000000     0.851330000000     0.500000000000     0          
C294     C      0.700590000000     0.799410000000     0.500000000000     0          
C295     C      0.648670000000     0.351330000000     0.000000000000     0          
C296     C      0.700590000000     0.299410000000     0.000000000000     0          
C297     C      0.851330000000     0.851330000000     0.000000000000     0          
C298     C      0.799410000000     0.799410000000     0.000000000000     0          
C299     C      0.851330000000     0.351330000000     0.500000000000     0          
C300     C      0.799410000000     0.299410000000     0.500000000000     0          
C301     C      0.351330000000     0.851330000000     0.500000000000     0          
C302     C      0.299410000000     0.799410000000     0.500000000000     0          
C303     C      0.351330000000     0.351330000000     0.000000000000     0          
C304     C      0.299410000000     0.299410000000     0.000000000000     0          
C305     C      0.851330000000     0.148670000000     0.000000000000     0          
C306     C      0.799410000000     0.200590000000     0.000000000000     0          
C307     C      0.851330000000     0.648670000000     0.500000000000     0          
C308     C      0.799410000000     0.700590000000     0.500000000000     0          
C309     C      0.351330000000     0.148670000000     0.500000000000     0          
C310     C      0.299410000000     0.200590000000     0.500000000000     0          
C311     C      0.351330000000     0.648670000000     0.000000000000     0          
C312     C      0.299410000000     0.700590000000     0.000000000000     0          
C313     C      0.000000000000     0.148670000000     0.148670000000     0          
C314     C      0.000000000000     0.200590000000     0.200590000000     0          
C315     C      0.000000000000     0.648670000000     0.648670000000     0          
C316     C      0.000000000000     0.700590000000     0.700590000000     0          
C317     C      0.500000000000     0.148670000000     0.648670000000     0          
C318     C      0.500000000000     0.200590000000     0.700590000000     0          
C319     C      0.500000000000     0.648670000000     0.148670000000     0          
C320     C      0.500000000000     0.700590000000     0.200590000000     0          
C321     C      0.000000000000     0.148670000000     0.851330000000     0          
C322     C      0.000000000000     0.200590000000     0.799410000000     0          
C323     C      0.000000000000     0.648670000000     0.351330000000     0          
C324     C      0.000000000000     0.700590000000     0.299410000000     0          
C325     C      0.500000000000     0.148670000000     0.351330000000     0          
C326     C      0.500000000000     0.200590000000     0.299410000000     0          
C327     C      0.500000000000     0.648670000000     0.851330000000     0          
C328     C      0.500000000000     0.700590000000     0.799410000000     0          
C329     C      0.000000000000     0.851330000000     0.851330000000     0          
C330     C      0.000000000000     0.799410000000     0.799410000000     0          
C331     C      0.000000000000     0.351330000000     0.351330000000     0          
C332     C      0.000000000000     0.299410000000     0.299410000000     0          
C333     C      0.500000000000     0.851330000000     0.351330000000     0          
C334     C      0.500000000000     0.799410000000     0.299410000000     0          
C335     C      0.500000000000     0.351330000000     0.851330000000     0          
C336     C      0.500000000000     0.299410000000     0.799410000000     0          
C337     C      0.000000000000     0.851330000000     0.148670000000     0          
C338     C      0.000000000000     0.799410000000     0.200590000000     0          
C339     C      0.000000000000     0.351330000000     0.648670000000     0          
C340     C      0.000000000000     0.299410000000     0.700590000000     0          
C341     C      0.500000000000     0.851330000000     0.648670000000     0          
C342     C      0.500000000000     0.799410000000     0.700590000000     0          
C343     C      0.500000000000     0.351330000000     0.148670000000     0          
C344     C      0.500000000000     0.299410000000     0.200590000000     0          
H345     H      0.634150000000     0.716810000000     0.500000000000     0          
H346     H      0.865850000000     0.783190000000     0.500000000000     0          
H347     H      0.500000000000     0.634150000000     0.716810000000     0          
H348     H      0.500000000000     0.783190000000     0.865850000000     0          
H349     H      0.500000000000     0.716810000000     0.634150000000     0          
H350     H      0.716810000000     0.634150000000     0.500000000000     0          
H351     H      0.000000000000     0.634150000000     0.216810000000     0          
H352     H      0.000000000000     0.783190000000     0.365850000000     0          
H353     H      0.000000000000     0.716810000000     0.134150000000     0          
H354     H      0.134150000000     0.716810000000     0.000000000000     0          
H355     H      0.365850000000     0.783190000000     0.000000000000     0          
H356     H      0.216810000000     0.634150000000     0.000000000000     0          
H357     H      0.000000000000     0.865850000000     0.716810000000     0          
H358     H      0.000000000000     0.716810000000     0.865850000000     0          
H359     H      0.000000000000     0.783190000000     0.634150000000     0          
H360     H      0.634150000000     0.783190000000     0.000000000000     0          
H361     H      0.865850000000     0.716810000000     0.000000000000     0          
H362     H      0.716810000000     0.865850000000     0.000000000000     0          
H363     H      0.283190000000     0.500000000000     0.634150000000     0          
H364     H      0.216810000000     0.500000000000     0.865850000000     0          
H365     H      0.134150000000     0.783190000000     0.500000000000     0          
H366     H      0.283190000000     0.634150000000     0.500000000000     0          
H367     H      0.216810000000     0.865850000000     0.500000000000     0          
H368     H      0.134150000000     0.500000000000     0.783190000000     0          
H369     H      0.283190000000     0.000000000000     0.134150000000     0          
H370     H      0.216810000000     0.000000000000     0.365850000000     0          
H371     H      0.134150000000     0.000000000000     0.283190000000     0          
H372     H      0.134150000000     0.283190000000     0.000000000000     0          
H373     H      0.283190000000     0.134150000000     0.000000000000     0          
H374     H      0.216810000000     0.365850000000     0.000000000000     0          
H375     H      0.716810000000     0.500000000000     0.634150000000     0          
H376     H      0.783190000000     0.500000000000     0.865850000000     0          
H377     H      0.634150000000     0.500000000000     0.716810000000     0          
H378     H      0.716810000000     0.000000000000     0.134150000000     0          
H379     H      0.783190000000     0.000000000000     0.365850000000     0          
H380     H      0.634150000000     0.000000000000     0.216810000000     0          
H381     H      0.634150000000     0.216810000000     0.000000000000     0          
H382     H      0.716810000000     0.134150000000     0.000000000000     0          
H383     H      0.783190000000     0.365850000000     0.000000000000     0          
H384     H      0.783190000000     0.000000000000     0.634150000000     0          
H385     H      0.783190000000     0.500000000000     0.134150000000     0          
H386     H      0.634150000000     0.283190000000     0.500000000000     0          
H387     H      0.865850000000     0.216810000000     0.500000000000     0          
H388     H      0.783190000000     0.134150000000     0.500000000000     0          
H389     H      0.634150000000     0.000000000000     0.783190000000     0          
H390     H      0.634150000000     0.500000000000     0.283190000000     0          
H391     H      0.865850000000     0.000000000000     0.716810000000     0          
H392     H      0.865850000000     0.500000000000     0.216810000000     0          
H393     H      0.365850000000     0.283190000000     0.500000000000     0          
H394     H      0.216810000000     0.134150000000     0.500000000000     0          
H395     H      0.283190000000     0.365850000000     0.500000000000     0          
H396     H      0.216810000000     0.500000000000     0.134150000000     0          
H397     H      0.283190000000     0.500000000000     0.365850000000     0          
H398     H      0.000000000000     0.134150000000     0.283190000000     0          
H399     H      0.500000000000     0.634150000000     0.283190000000     0          
H400     H      0.000000000000     0.134150000000     0.716810000000     0          
H401     H      0.000000000000     0.365850000000     0.783190000000     0          
H402     H      0.000000000000     0.283190000000     0.865850000000     0          
H403     H      0.000000000000     0.216810000000     0.365850000000     0          
H404     H      0.500000000000     0.716810000000     0.365850000000     0          
H405     H      0.000000000000     0.283190000000     0.134150000000     0          
H406     H      0.500000000000     0.783190000000     0.134150000000     0          
H407     H      0.365850000000     0.500000000000     0.283190000000     0          
H408     H      0.216810000000     0.000000000000     0.634150000000     0          
H409     H      0.283190000000     0.000000000000     0.865850000000     0          
H410     H      0.134150000000     0.000000000000     0.716810000000     0          
H411     H      0.500000000000     0.365850000000     0.716810000000     0          
H412     H      0.500000000000     0.365850000000     0.283190000000     0          
H413     H      0.500000000000     0.283190000000     0.365850000000     0          
H414     H      0.500000000000     0.216810000000     0.865850000000     0          
H415     H      0.500000000000     0.216810000000     0.134150000000     0          
H416     H      0.500000000000     0.283190000000     0.634150000000     0          


