data_TEWMOA

_audit_creation_method RASPA-1.0
_audit_creation_date 2020-11-2
_audit_author_name 'Rocio Bueno-Perez'

_cell_length_a    25.2379
_cell_length_b    27.7529
_cell_length_c    15.2344
_cell_angle_alpha 90
_cell_angle_beta  90
_cell_angle_gamma 90
_cell_volume      10670.6

_symmetry_cell_setting          triclinic
_symmetry_space_group_name_Hall 'P 1'
_symmetry_space_group_name_H-M  'P 1'
_symmetry_Int_Tables_number     1

_symmetry_equiv_pos_as_xyz 'x,y,z'

loop_
_atom_site_label
_atom_site_type_symbol
_atom_site_fract_x
_atom_site_fract_y
_atom_site_fract_z
_atom_site_charge
Zr1      Zr     0.277710000000     0.313140000000     0.643440000000     0          
O2       O      0.293400000000     0.186700000000     0.776100000000     0          
O3       O      0.401300000000     0.298500000000     0.758400000000     0          
O4       O      0.362100000000     0.340100000000     0.653800000000     0          
C5       C      0.452300000000     0.349800000000     0.677200000000     0          
C6       C      0.451800000000     0.390500000000     0.628500000000     0          
H7       H      0.419000000000     0.404800000000     0.612600000000     0          
C8       C      0.529500000000     0.457300000000     0.473000000000     0          
C9       C      0.529700000000     0.498200000000     0.429000000000     0          
H10      H      0.551800000000     0.499100000000     0.378300000000     0          
C11      C      0.563000000000     0.423000000000     0.419000000000     0          
C12      C      0.402100000000     0.327200000000     0.694500000000     0          
O13      O      0.361100000000     0.296100000000     0.917000000000     0          
O14      O      0.285300000000     0.340200000000     0.948800000000     0          
C15      C      0.335800000000     0.322200000000     0.961900000000     0          
Zr16     Zr     0.777710000000     0.813140000000     0.143440000000     0          
O17      O      0.793400000000     0.686700000000     0.276100000000     0          
O18      O      0.901300000000     0.798500000000     0.258400000000     0          
O19      O      0.862100000000     0.840100000000     0.153800000000     0          
C20      C      0.952300000000     0.849800000000     0.177200000000     0          
C21      C      0.951800000000     0.890500000000     0.128500000000     0          
H22      H      0.919000000000     0.904800000000     0.112600000000     0          
C23      C      0.029500000000     0.957300000000     0.973000000000     0          
C24      C      0.029700000000     0.998200000000     0.929000000000     0          
H25      H      0.051800000000     0.999100000000     0.878300000000     0          
C26      C      0.063000000000     0.923000000000     0.919000000000     0          
C27      C      0.902100000000     0.827200000000     0.194500000000     0          
O28      O      0.861100000000     0.796100000000     0.417000000000     0          
O29      O      0.785300000000     0.840200000000     0.448800000000     0          
C30      C      0.835800000000     0.822200000000     0.461900000000     0          
Zr31     Zr     0.722290000000     0.186860000000     0.643440000000     0          
O32      O      0.706600000000     0.313300000000     0.776100000000     0          
O33      O      0.598700000000     0.201500000000     0.758400000000     0          
O34      O      0.637900000000     0.159900000000     0.653800000000     0          
C35      C      0.547700000000     0.150200000000     0.677200000000     0          
C36      C      0.548200000000     0.109500000000     0.628500000000     0          
H37      H      0.581000000000     0.095200000000     0.612600000000     0          
C38      C      0.597900000000     0.172800000000     0.694500000000     0          
O39      O      0.638900000000     0.203900000000     0.917000000000     0          
O40      O      0.714700000000     0.159800000000     0.948800000000     0          
C41      C      0.664200000000     0.177800000000     0.961900000000     0          
Zr42     Zr     0.222290000000     0.686860000000     0.143440000000     0          
O43      O      0.206600000000     0.813300000000     0.276100000000     0          
O44      O      0.098700000000     0.701500000000     0.258400000000     0          
O45      O      0.137900000000     0.659900000000     0.153800000000     0          
C46      C      0.047700000000     0.650200000000     0.177200000000     0          
C47      C      0.048200000000     0.609500000000     0.128500000000     0          
H48      H      0.081000000000     0.595200000000     0.112600000000     0          
C49      C      0.970500000000     0.542700000000     0.973000000000     0          
C50      C      0.970300000000     0.501800000000     0.929000000000     0          
H51      H      0.948200000000     0.500900000000     0.878300000000     0          
C52      C      0.937000000000     0.577000000000     0.919000000000     0          
C53      C      0.097900000000     0.672800000000     0.194500000000     0          
O54      O      0.138900000000     0.703900000000     0.417000000000     0          
O55      O      0.214700000000     0.659800000000     0.448800000000     0          
C56      C      0.164200000000     0.677800000000     0.461900000000     0          
Zr57     Zr     0.722290000000     0.813140000000     0.356560000000     0          
O58      O      0.706600000000     0.686700000000     0.223900000000     0          
O59      O      0.598700000000     0.798500000000     0.241600000000     0          
O60      O      0.637900000000     0.840100000000     0.346200000000     0          
C61      C      0.547700000000     0.849800000000     0.322800000000     0          
C62      C      0.548200000000     0.890500000000     0.371500000000     0          
H63      H      0.581000000000     0.904800000000     0.387400000000     0          
C64      C      0.470500000000     0.957300000000     0.527000000000     0          
C65      C      0.470300000000     0.998200000000     0.571000000000     0          
H66      H      0.448200000000     0.999100000000     0.621700000000     0          
C67      C      0.437000000000     0.923000000000     0.581000000000     0          
C68      C      0.597900000000     0.827200000000     0.305500000000     0          
O69      O      0.638900000000     0.796100000000     0.083000000000     0          
O70      O      0.714700000000     0.840200000000     0.051200000000     0          
C71      C      0.664200000000     0.822200000000     0.038100000000     0          
Zr72     Zr     0.222290000000     0.313140000000     0.856560000000     0          
O73      O      0.206600000000     0.186700000000     0.723900000000     0          
O74      O      0.098700000000     0.298500000000     0.741600000000     0          
O75      O      0.137900000000     0.340100000000     0.846200000000     0          
C76      C      0.047700000000     0.349800000000     0.822800000000     0          
C77      C      0.048200000000     0.390500000000     0.871500000000     0          
H78      H      0.081000000000     0.404800000000     0.887400000000     0          
C79      C      0.097900000000     0.327200000000     0.805500000000     0          
O80      O      0.138900000000     0.296100000000     0.583000000000     0          
O81      O      0.214700000000     0.340200000000     0.551200000000     0          
C82      C      0.164200000000     0.322200000000     0.538100000000     0          
Zr83     Zr     0.277710000000     0.686860000000     0.356560000000     0          
O84      O      0.293400000000     0.813300000000     0.223900000000     0          
O85      O      0.401300000000     0.701500000000     0.241600000000     0          
O86      O      0.362100000000     0.659900000000     0.346200000000     0          
C87      C      0.452300000000     0.650200000000     0.322800000000     0          
C88      C      0.451800000000     0.609500000000     0.371500000000     0          
H89      H      0.419000000000     0.595200000000     0.387400000000     0          
C90      C      0.402100000000     0.672800000000     0.305500000000     0          
O91      O      0.361100000000     0.703900000000     0.083000000000     0          
O92      O      0.285300000000     0.659800000000     0.051200000000     0          
C93      C      0.335800000000     0.677800000000     0.038100000000     0          
Zr94     Zr     0.777710000000     0.186860000000     0.856560000000     0          
O95      O      0.793400000000     0.313300000000     0.723900000000     0          
O96      O      0.901300000000     0.201500000000     0.741600000000     0          
O97      O      0.862100000000     0.159900000000     0.846200000000     0          
C98      C      0.952300000000     0.150200000000     0.822800000000     0          
C99      C      0.951800000000     0.109500000000     0.871500000000     0          
H100     H      0.919000000000     0.095200000000     0.887400000000     0          
C101     C      0.902100000000     0.172800000000     0.805500000000     0          
O102     O      0.861100000000     0.203900000000     0.583000000000     0          
O103     O      0.785300000000     0.159800000000     0.551200000000     0          
C104     C      0.835800000000     0.177800000000     0.538100000000     0          
Zr105    Zr     0.722290000000     0.686860000000     0.356560000000     0          
O106     O      0.706600000000     0.813300000000     0.223900000000     0          
O107     O      0.598700000000     0.701500000000     0.241600000000     0          
O108     O      0.637900000000     0.659900000000     0.346200000000     0          
C109     C      0.547700000000     0.650200000000     0.322800000000     0          
C110     C      0.548200000000     0.609500000000     0.371500000000     0          
H111     H      0.581000000000     0.595200000000     0.387400000000     0          
C112     C      0.470500000000     0.542700000000     0.527000000000     0          
C113     C      0.470300000000     0.501800000000     0.571000000000     0          
H114     H      0.448200000000     0.500900000000     0.621700000000     0          
C115     C      0.437000000000     0.577000000000     0.581000000000     0          
C116     C      0.597900000000     0.672800000000     0.305500000000     0          
O117     O      0.638900000000     0.703900000000     0.083000000000     0          
O118     O      0.714700000000     0.659800000000     0.051200000000     0          
C119     C      0.664200000000     0.677800000000     0.038100000000     0          
Zr120    Zr     0.222290000000     0.186860000000     0.856560000000     0          
O121     O      0.206600000000     0.313300000000     0.723900000000     0          
O122     O      0.098700000000     0.201500000000     0.741600000000     0          
O123     O      0.137900000000     0.159900000000     0.846200000000     0          
C124     C      0.047700000000     0.150200000000     0.822800000000     0          
C125     C      0.048200000000     0.109500000000     0.871500000000     0          
H126     H      0.081000000000     0.095200000000     0.887400000000     0          
C127     C      0.970500000000     0.042700000000     0.027000000000     0          
C128     C      0.970300000000     0.001800000000     0.071000000000     0          
H129     H      0.948200000000     0.000900000000     0.121700000000     0          
C130     C      0.937000000000     0.077000000000     0.081000000000     0          
C131     C      0.097900000000     0.172800000000     0.805500000000     0          
O132     O      0.138900000000     0.203900000000     0.583000000000     0          
O133     O      0.214700000000     0.159800000000     0.551200000000     0          
C134     C      0.164200000000     0.177800000000     0.538100000000     0          
Zr135    Zr     0.277710000000     0.813140000000     0.356560000000     0          
O136     O      0.293400000000     0.686700000000     0.223900000000     0          
O137     O      0.401300000000     0.798500000000     0.241600000000     0          
O138     O      0.362100000000     0.840100000000     0.346200000000     0          
C139     C      0.452300000000     0.849800000000     0.322800000000     0          
C140     C      0.451800000000     0.890500000000     0.371500000000     0          
H141     H      0.419000000000     0.904800000000     0.387400000000     0          
C142     C      0.402100000000     0.827200000000     0.305500000000     0          
O143     O      0.361100000000     0.796100000000     0.083000000000     0          
O144     O      0.285300000000     0.840200000000     0.051200000000     0          
C145     C      0.335800000000     0.822200000000     0.038100000000     0          
Zr146    Zr     0.777710000000     0.313140000000     0.856560000000     0          
O147     O      0.793400000000     0.186700000000     0.723900000000     0          
O148     O      0.901300000000     0.298500000000     0.741600000000     0          
O149     O      0.862100000000     0.340100000000     0.846200000000     0          
C150     C      0.952300000000     0.349800000000     0.822800000000     0          
C151     C      0.951800000000     0.390500000000     0.871500000000     0          
H152     H      0.919000000000     0.404800000000     0.887400000000     0          
C153     C      0.029500000000     0.457300000000     0.027000000000     0          
C154     C      0.029700000000     0.498200000000     0.071000000000     0          
H155     H      0.051800000000     0.499100000000     0.121700000000     0          
C156     C      0.063000000000     0.423000000000     0.081000000000     0          
C157     C      0.902100000000     0.327200000000     0.805500000000     0          
O158     O      0.861100000000     0.296100000000     0.583000000000     0          
O159     O      0.785300000000     0.340200000000     0.551200000000     0          
C160     C      0.835800000000     0.322200000000     0.538100000000     0          
Zr161    Zr     0.277710000000     0.186860000000     0.643440000000     0          
O162     O      0.293400000000     0.313300000000     0.776100000000     0          
O163     O      0.401300000000     0.201500000000     0.758400000000     0          
O164     O      0.362100000000     0.159900000000     0.653800000000     0          
C165     C      0.452300000000     0.150200000000     0.677200000000     0          
C166     C      0.451800000000     0.109500000000     0.628500000000     0          
H167     H      0.419000000000     0.095200000000     0.612600000000     0          
C168     C      0.529500000000     0.042700000000     0.473000000000     0          
C169     C      0.529700000000     0.001800000000     0.429000000000     0          
H170     H      0.551800000000     0.000900000000     0.378300000000     0          
C171     C      0.563000000000     0.077000000000     0.419000000000     0          
C172     C      0.402100000000     0.172800000000     0.694500000000     0          
O173     O      0.361100000000     0.203900000000     0.917000000000     0          
O174     O      0.285300000000     0.159800000000     0.948800000000     0          
C175     C      0.335800000000     0.177800000000     0.961900000000     0          
Zr176    Zr     0.777710000000     0.686860000000     0.143440000000     0          
O177     O      0.793400000000     0.813300000000     0.276100000000     0          
O178     O      0.901300000000     0.701500000000     0.258400000000     0          
O179     O      0.862100000000     0.659900000000     0.153800000000     0          
C180     C      0.952300000000     0.650200000000     0.177200000000     0          
C181     C      0.951800000000     0.609500000000     0.128500000000     0          
H182     H      0.919000000000     0.595200000000     0.112600000000     0          
C183     C      0.902100000000     0.672800000000     0.194500000000     0          
O184     O      0.861100000000     0.703900000000     0.417000000000     0          
O185     O      0.785300000000     0.659800000000     0.448800000000     0          
C186     C      0.835800000000     0.677800000000     0.461900000000     0          
Zr187    Zr     0.722290000000     0.313140000000     0.643440000000     0          
O188     O      0.706600000000     0.186700000000     0.776100000000     0          
O189     O      0.598700000000     0.298500000000     0.758400000000     0          
O190     O      0.637900000000     0.340100000000     0.653800000000     0          
C191     C      0.547700000000     0.349800000000     0.677200000000     0          
C192     C      0.548200000000     0.390500000000     0.628500000000     0          
H193     H      0.581000000000     0.404800000000     0.612600000000     0          
C194     C      0.597900000000     0.327200000000     0.694500000000     0          
O195     O      0.638900000000     0.296100000000     0.917000000000     0          
O196     O      0.714700000000     0.340200000000     0.948800000000     0          
C197     C      0.664200000000     0.322200000000     0.961900000000     0          
Zr198    Zr     0.222290000000     0.813140000000     0.143440000000     0          
O199     O      0.206600000000     0.686700000000     0.276100000000     0          
O200     O      0.098700000000     0.798500000000     0.258400000000     0          
O201     O      0.137900000000     0.840100000000     0.153800000000     0          
C202     C      0.047700000000     0.849800000000     0.177200000000     0          
C203     C      0.048200000000     0.890500000000     0.128500000000     0          
H204     H      0.081000000000     0.904800000000     0.112600000000     0          
C205     C      0.097900000000     0.827200000000     0.194500000000     0          
O206     O      0.138900000000     0.796100000000     0.417000000000     0          
O207     O      0.214700000000     0.840200000000     0.448800000000     0          
C208     C      0.164200000000     0.822200000000     0.461900000000     0          
Zr209    Zr     0.339000000000     0.250000000000     0.812930000000     0          
O210     O      0.266600000000     0.250000000000     0.887200000000     0          
O211     O      0.317700000000     0.250000000000     0.670600000000     0          
Zr212    Zr     0.839000000000     0.750000000000     0.312930000000     0          
O213     O      0.766600000000     0.750000000000     0.387200000000     0          
O214     O      0.817700000000     0.750000000000     0.170600000000     0          
Zr215    Zr     0.661000000000     0.250000000000     0.812930000000     0          
O216     O      0.733400000000     0.250000000000     0.887200000000     0          
O217     O      0.682300000000     0.250000000000     0.670600000000     0          
Zr218    Zr     0.161000000000     0.750000000000     0.312930000000     0          
O219     O      0.233400000000     0.750000000000     0.387200000000     0          
O220     O      0.182300000000     0.750000000000     0.170600000000     0          
Zr221    Zr     0.661000000000     0.750000000000     0.187070000000     0          
O222     O      0.733400000000     0.750000000000     0.112800000000     0          
O223     O      0.682300000000     0.750000000000     0.329400000000     0          
Zr224    Zr     0.161000000000     0.250000000000     0.687070000000     0          
O225     O      0.233400000000     0.250000000000     0.612800000000     0          
O226     O      0.182300000000     0.250000000000     0.829400000000     0          
Zr227    Zr     0.339000000000     0.750000000000     0.187070000000     0          
O228     O      0.266600000000     0.750000000000     0.112800000000     0          
O229     O      0.317700000000     0.750000000000     0.329400000000     0          
Zr230    Zr     0.839000000000     0.250000000000     0.687070000000     0          
O231     O      0.766600000000     0.250000000000     0.612800000000     0          
O232     O      0.817700000000     0.250000000000     0.829400000000     0          
C233     C      0.500000000000     0.328800000000     0.707800000000     0          
H234     H      0.500000000000     0.302100000000     0.746800000000     0          
C235     C      0.500000000000     0.411700000000     0.601000000000     0          
C236     C      0.500000000000     0.457600000000     0.552000000000     0          
C237     C      0.000000000000     0.828800000000     0.207800000000     0          
H238     H      0.000000000000     0.802100000000     0.246800000000     0          
C239     C      0.000000000000     0.911700000000     0.101000000000     0          
C240     C      0.000000000000     0.957600000000     0.052000000000     0          
C241     C      0.500000000000     0.171200000000     0.707800000000     0          
H242     H      0.500000000000     0.197900000000     0.746800000000     0          
C243     C      0.500000000000     0.088300000000     0.601000000000     0          
C244     C      0.500000000000     0.042400000000     0.552000000000     0          
C245     C      0.000000000000     0.671200000000     0.207800000000     0          
H246     H      0.000000000000     0.697900000000     0.246800000000     0          
C247     C      0.000000000000     0.588300000000     0.101000000000     0          
C248     C      0.000000000000     0.542400000000     0.052000000000     0          
C249     C      0.500000000000     0.828800000000     0.292200000000     0          
H250     H      0.500000000000     0.802100000000     0.253200000000     0          
C251     C      0.500000000000     0.911700000000     0.399000000000     0          
C252     C      0.500000000000     0.957600000000     0.448000000000     0          
C253     C      0.000000000000     0.328800000000     0.792200000000     0          
H254     H      0.000000000000     0.302100000000     0.753200000000     0          
C255     C      0.000000000000     0.411700000000     0.899000000000     0          
C256     C      0.000000000000     0.457600000000     0.948000000000     0          
C257     C      0.500000000000     0.671200000000     0.292200000000     0          
H258     H      0.500000000000     0.697900000000     0.253200000000     0          
C259     C      0.500000000000     0.588300000000     0.399000000000     0          
C260     C      0.500000000000     0.542400000000     0.448000000000     0          
C261     C      0.000000000000     0.171200000000     0.792200000000     0          
H262     H      0.000000000000     0.197900000000     0.753200000000     0          
C263     C      0.000000000000     0.088300000000     0.899000000000     0          
C264     C      0.000000000000     0.042400000000     0.948000000000     0          
H265     H      0.554980000000     0.429240000000     0.346240000000     0          
H266     H      0.552500000000     0.384260000000     0.436810000000     0          
H267     H      0.606720000000     0.429700000000     0.433340000000     0          
H268     H      0.409700000000     0.555460000000     0.625880000000     0          
H269     H      0.412190000000     0.600430000000     0.535310000000     0          
H270     H      0.463920000000     0.600900000000     0.622410000000     0          
H271     H      0.895960000000     0.560790000000     0.908750000000     0          
H272     H      0.956670000000     0.583180000000     0.852580000000     0          
H273     H      0.933180000000     0.612820000000     0.955060000000     0          
H274     H      0.099460000000     0.411980000000     0.041660000000     0          
H275     H      0.038760000000     0.389590000000     0.097820000000     0          
H276     H      0.075980000000     0.441630000000     0.144140000000     0          
H277     H      0.461240000000     0.889590000000     0.597820000000     0          
H278     H      0.400540000000     0.911980000000     0.541660000000     0          
H279     H      0.424020000000     0.941630000000     0.644140000000     0          
H280     H      0.543330000000     0.083180000000     0.352580000000     0          
H281     H      0.604040000000     0.060790000000     0.408750000000     0          
H282     H      0.566820000000     0.112820000000     0.455060000000     0          
H283     H      0.054980000000     0.929240000000     0.846240000000     0          
H284     H      0.052500000000     0.884260000000     0.936810000000     0          
H285     H      0.106720000000     0.929700000000     0.933340000000     0          
H286     H      0.909700000000     0.055460000000     0.125880000000     0          
H287     H      0.912190000000     0.100430000000     0.035310000000     0          
H288     H      0.963920000000     0.100900000000     0.122410000000     0          


