data_TEYYUU

_audit_creation_method RASPA-1.0
_audit_creation_date 2020-11-2
_audit_author_name 'Rocio Bueno-Perez'

_cell_length_a    15.4249
_cell_length_b    15.4249
_cell_length_c    15.4249
_cell_angle_alpha 90
_cell_angle_beta  90
_cell_angle_gamma 90
_cell_volume      3670.01

_symmetry_cell_setting          triclinic
_symmetry_space_group_name_Hall 'P 1'
_symmetry_space_group_name_H-M  'P 1'
_symmetry_Int_Tables_number     1

_symmetry_equiv_pos_as_xyz 'x,y,z'

loop_
_atom_site_label
_atom_site_type_symbol
_atom_site_fract_x
_atom_site_fract_y
_atom_site_fract_z
_atom_site_charge
H9       H      0.709900000000     0.421500000000     0.856800000000     0          
C10      C      0.829100000000     0.449100000000     0.907700000000     0          
H11      H      0.824900000000     0.410600000000     0.956300000000     0          
C12      C      0.762400000000     0.453600000000     0.847300000000     0          
H13      H      0.290100000000     0.578500000000     0.856800000000     0          
C14      C      0.170900000000     0.550900000000     0.907700000000     0          
H15      H      0.175100000000     0.589400000000     0.956300000000     0          
C16      C      0.237600000000     0.546400000000     0.847300000000     0          
H17      H      0.143200000000     0.290100000000     0.421500000000     0          
C18      C      0.092300000000     0.170900000000     0.449100000000     0          
H19      H      0.043700000000     0.175100000000     0.410600000000     0          
C20      C      0.152700000000     0.237600000000     0.453600000000     0          
H29      H      0.856800000000     0.290100000000     0.578500000000     0          
C30      C      0.907700000000     0.170900000000     0.550900000000     0          
H31      H      0.956300000000     0.175100000000     0.589400000000     0          
C32      C      0.847300000000     0.237600000000     0.546400000000     0          
H33      H      0.421500000000     0.143200000000     0.290100000000     0          
C34      C      0.449100000000     0.092300000000     0.170900000000     0          
H35      H      0.410600000000     0.043700000000     0.175100000000     0          
C36      C      0.453600000000     0.152700000000     0.237600000000     0          
H45      H      0.578500000000     0.856800000000     0.290100000000     0          
C46      C      0.550900000000     0.907700000000     0.170900000000     0          
H47      H      0.589400000000     0.956300000000     0.175100000000     0          
C48      C      0.546400000000     0.847300000000     0.237600000000     0          
H57      H      0.421500000000     0.709900000000     0.143200000000     0          
C58      C      0.449100000000     0.829100000000     0.092300000000     0          
H59      H      0.410600000000     0.824900000000     0.043700000000     0          
C60      C      0.453600000000     0.762400000000     0.152700000000     0          
H61      H      0.578500000000     0.290100000000     0.143200000000     0          
C62      C      0.550900000000     0.170900000000     0.092300000000     0          
H63      H      0.589400000000     0.175100000000     0.043700000000     0          
C64      C      0.546400000000     0.237600000000     0.152700000000     0          
H65      H      0.290100000000     0.143200000000     0.578500000000     0          
C66      C      0.170900000000     0.092300000000     0.550900000000     0          
H67      H      0.175100000000     0.043700000000     0.589400000000     0          
C68      C      0.237600000000     0.152700000000     0.546400000000     0          
H69      H      0.709900000000     0.143200000000     0.421500000000     0          
C70      C      0.829100000000     0.092300000000     0.449100000000     0          
H71      H      0.824900000000     0.043700000000     0.410600000000     0          
C72      C      0.762400000000     0.152700000000     0.453600000000     0          
H81      H      0.143200000000     0.421500000000     0.709900000000     0          
C82      C      0.092300000000     0.449100000000     0.829100000000     0          
H83      H      0.043700000000     0.410600000000     0.824900000000     0          
C84      C      0.152700000000     0.453600000000     0.762400000000     0          
H93      H      0.856800000000     0.578500000000     0.709900000000     0          
C94      C      0.907700000000     0.550900000000     0.829100000000     0          
H95      H      0.956300000000     0.589400000000     0.824900000000     0          
C96      C      0.847300000000     0.546400000000     0.762400000000     0          
H105     H      0.290100000000     0.578500000000     0.143200000000     0          
C106     C      0.170900000000     0.550900000000     0.092300000000     0          
H107     H      0.175100000000     0.589400000000     0.043700000000     0          
C108     C      0.237600000000     0.546400000000     0.152700000000     0          
H109     H      0.709900000000     0.421500000000     0.143200000000     0          
C110     C      0.829100000000     0.449100000000     0.092300000000     0          
H111     H      0.824900000000     0.410600000000     0.043700000000     0          
C112     C      0.762400000000     0.453600000000     0.152700000000     0          
H113     H      0.856800000000     0.709900000000     0.578500000000     0          
C114     C      0.907700000000     0.829100000000     0.550900000000     0          
H115     H      0.956300000000     0.824900000000     0.589400000000     0          
C116     C      0.847300000000     0.762400000000     0.546400000000     0          
H125     H      0.143200000000     0.709900000000     0.421500000000     0          
C126     C      0.092300000000     0.829100000000     0.449100000000     0          
H127     H      0.043700000000     0.824900000000     0.410600000000     0          
C128     C      0.152700000000     0.762400000000     0.453600000000     0          
H129     H      0.578500000000     0.856800000000     0.709900000000     0          
C130     C      0.550900000000     0.907700000000     0.829100000000     0          
H131     H      0.589400000000     0.956300000000     0.824900000000     0          
C132     C      0.546400000000     0.847300000000     0.762400000000     0          
H141     H      0.421500000000     0.143200000000     0.709900000000     0          
C142     C      0.449100000000     0.092300000000     0.829100000000     0          
H143     H      0.410600000000     0.043700000000     0.824900000000     0          
C144     C      0.453600000000     0.152700000000     0.762400000000     0          
H153     H      0.578500000000     0.290100000000     0.856800000000     0          
C154     C      0.550900000000     0.170900000000     0.907700000000     0          
H155     H      0.589400000000     0.175100000000     0.956300000000     0          
C156     C      0.546400000000     0.237600000000     0.847300000000     0          
H157     H      0.421500000000     0.709900000000     0.856800000000     0          
C158     C      0.449100000000     0.829100000000     0.907700000000     0          
H159     H      0.410600000000     0.824900000000     0.956300000000     0          
C160     C      0.453600000000     0.762400000000     0.847300000000     0          
H161     H      0.709900000000     0.856800000000     0.421500000000     0          
C162     C      0.829100000000     0.907700000000     0.449100000000     0          
H163     H      0.824900000000     0.956300000000     0.410600000000     0          
C164     C      0.762400000000     0.847300000000     0.453600000000     0          
H165     H      0.290100000000     0.856800000000     0.578500000000     0          
C166     C      0.170900000000     0.907700000000     0.550900000000     0          
H167     H      0.175100000000     0.956300000000     0.589400000000     0          
C168     C      0.237600000000     0.847300000000     0.546400000000     0          
H177     H      0.856800000000     0.578500000000     0.290100000000     0          
C178     C      0.907700000000     0.550900000000     0.170900000000     0          
H179     H      0.956300000000     0.589400000000     0.175100000000     0          
C180     C      0.847300000000     0.546400000000     0.237600000000     0          
H189     H      0.143200000000     0.421500000000     0.290100000000     0          
C190     C      0.092300000000     0.449100000000     0.170900000000     0          
H191     H      0.043700000000     0.410600000000     0.175100000000     0          
C192     C      0.152700000000     0.453600000000     0.237600000000     0          
Zr193    Zr     0.500000000000     0.500000000000     0.339460000000     0          
Zr194    Zr     0.500000000000     0.500000000000     0.660540000000     0          
Zr195    Zr     0.339460000000     0.500000000000     0.500000000000     0          
Zr196    Zr     0.660540000000     0.500000000000     0.500000000000     0          
Zr197    Zr     0.500000000000     0.339460000000     0.500000000000     0          
Zr198    Zr     0.500000000000     0.660540000000     0.500000000000     0          
O199     O      0.373700000000     0.500000000000     0.268200000000     0          
O200     O      0.626300000000     0.500000000000     0.268200000000     0          
O201     O      0.626300000000     0.500000000000     0.731800000000     0          
O202     O      0.373700000000     0.500000000000     0.731800000000     0          
O203     O      0.268200000000     0.373700000000     0.500000000000     0          
O204     O      0.268200000000     0.626300000000     0.500000000000     0          
O205     O      0.731800000000     0.626300000000     0.500000000000     0          
O206     O      0.731800000000     0.373700000000     0.500000000000     0          
O207     O      0.500000000000     0.268200000000     0.373700000000     0          
O208     O      0.500000000000     0.268200000000     0.626300000000     0          
O209     O      0.500000000000     0.731800000000     0.626300000000     0          
O210     O      0.500000000000     0.731800000000     0.373700000000     0          
O211     O      0.500000000000     0.373700000000     0.731800000000     0          
O212     O      0.500000000000     0.626300000000     0.731800000000     0          
O213     O      0.500000000000     0.626300000000     0.268200000000     0          
O214     O      0.500000000000     0.373700000000     0.268200000000     0          
O215     O      0.373700000000     0.268200000000     0.500000000000     0          
O216     O      0.626300000000     0.268200000000     0.500000000000     0          
O217     O      0.626300000000     0.731800000000     0.500000000000     0          
O218     O      0.373700000000     0.731800000000     0.500000000000     0          
O219     O      0.268200000000     0.500000000000     0.626300000000     0          
O220     O      0.268200000000     0.500000000000     0.373700000000     0          
O221     O      0.731800000000     0.500000000000     0.373700000000     0          
O222     O      0.731800000000     0.500000000000     0.626300000000     0          
O223     O      0.417700000000     0.417700000000     0.417700000000     0          
O224     O      0.582300000000     0.582300000000     0.417700000000     0          
O225     O      0.582300000000     0.417700000000     0.582300000000     0          
O226     O      0.417700000000     0.582300000000     0.582300000000     0          
O227     O      0.417700000000     0.417700000000     0.582300000000     0          
O228     O      0.582300000000     0.582300000000     0.582300000000     0          
O229     O      0.417700000000     0.582300000000     0.417700000000     0          
O230     O      0.582300000000     0.417700000000     0.417700000000     0          
C231     C      0.296800000000     0.500000000000     0.296800000000     0          
C232     C      0.226900000000     0.500000000000     0.226900000000     0          
N233     N      0.100000000000     0.500000000000     0.100000000000     0          
C234     C      0.703200000000     0.500000000000     0.296800000000     0          
C235     C      0.773100000000     0.500000000000     0.226900000000     0          
N236     N      0.900000000000     0.500000000000     0.100000000000     0          
C237     C      0.703200000000     0.500000000000     0.703200000000     0          
C238     C      0.773100000000     0.500000000000     0.773100000000     0          
N239     N      0.900000000000     0.500000000000     0.900000000000     0          
C240     C      0.296800000000     0.500000000000     0.703200000000     0          
C241     C      0.226900000000     0.500000000000     0.773100000000     0          
N242     N      0.100000000000     0.500000000000     0.900000000000     0          
C243     C      0.296800000000     0.296800000000     0.500000000000     0          
C244     C      0.226900000000     0.226900000000     0.500000000000     0          
N245     N      0.100000000000     0.100000000000     0.500000000000     0          
C246     C      0.296800000000     0.703200000000     0.500000000000     0          
C247     C      0.226900000000     0.773100000000     0.500000000000     0          
N248     N      0.100000000000     0.900000000000     0.500000000000     0          
C249     C      0.703200000000     0.703200000000     0.500000000000     0          
C250     C      0.773100000000     0.773100000000     0.500000000000     0          
N251     N      0.900000000000     0.900000000000     0.500000000000     0          
C252     C      0.703200000000     0.296800000000     0.500000000000     0          
C253     C      0.773100000000     0.226900000000     0.500000000000     0          
N254     N      0.900000000000     0.100000000000     0.500000000000     0          
C255     C      0.500000000000     0.296800000000     0.296800000000     0          
C256     C      0.500000000000     0.226900000000     0.226900000000     0          
N257     N      0.500000000000     0.100000000000     0.100000000000     0          
C258     C      0.500000000000     0.296800000000     0.703200000000     0          
C259     C      0.500000000000     0.226900000000     0.773100000000     0          
N260     N      0.500000000000     0.100000000000     0.900000000000     0          
C261     C      0.500000000000     0.703200000000     0.703200000000     0          
C262     C      0.500000000000     0.773100000000     0.773100000000     0          
N263     N      0.500000000000     0.900000000000     0.900000000000     0          
C264     C      0.500000000000     0.703200000000     0.296800000000     0          
C265     C      0.500000000000     0.773100000000     0.226900000000     0          
N266     N      0.500000000000     0.900000000000     0.100000000000     0          
Co267    Co     0.000000000000     0.500000000000     0.000000000000     0          
Co268    Co     0.000000000000     0.000000000000     0.500000000000     0          
Co269    Co     0.500000000000     0.000000000000     0.000000000000     0          
Cl270    Cl     0.000000000000     0.341200000000     0.000000000000     0          
Cl271    Cl     0.000000000000     0.658800000000     0.000000000000     0          
Cl272    Cl     0.000000000000     0.000000000000     0.341200000000     0          
Cl273    Cl     0.000000000000     0.000000000000     0.658800000000     0          
Cl274    Cl     0.341200000000     0.000000000000     0.000000000000     0          
Cl275    Cl     0.658800000000     0.000000000000     0.000000000000     0          


