data_TEYYUU01

_audit_creation_method RASPA-1.0
_audit_creation_date 2020-11-2
_audit_author_name 'Rocio Bueno-Perez'

_cell_length_a    15.416
_cell_length_b    15.416
_cell_length_c    15.416
_cell_angle_alpha 90
_cell_angle_beta  90
_cell_angle_gamma 90
_cell_volume      3663.66

_symmetry_cell_setting          triclinic
_symmetry_space_group_name_Hall 'P 1'
_symmetry_space_group_name_H-M  'P 1'
_symmetry_Int_Tables_number     1

_symmetry_equiv_pos_as_xyz 'x,y,z'

loop_
_atom_site_label
_atom_site_type_symbol
_atom_site_fract_x
_atom_site_fract_y
_atom_site_fract_z
_atom_site_charge
C5       C      0.734700000000     0.046900000000     0.347000000000     0          
H6       H      0.787600000000     0.078700000000     0.355700000000     0          
C7       C      0.671000000000     0.051300000000     0.407100000000     0          
H8       H      0.675300000000     0.092600000000     0.453600000000     0          
C9       C      0.734700000000     0.953100000000     0.653000000000     0          
H10      H      0.787600000000     0.921300000000     0.644300000000     0          
C11      C      0.671000000000     0.948700000000     0.592900000000     0          
H12      H      0.675300000000     0.907400000000     0.546400000000     0          
C17      C      0.347000000000     0.265300000000     0.953100000000     0          
H18      H      0.355700000000     0.212400000000     0.921300000000     0          
C19      C      0.407100000000     0.329000000000     0.948700000000     0          
H20      H      0.453600000000     0.324700000000     0.907400000000     0          
C29      C      0.653000000000     0.265300000000     0.046900000000     0          
H30      H      0.644300000000     0.212400000000     0.078700000000     0          
C31      C      0.592900000000     0.329000000000     0.051300000000     0          
H32      H      0.546400000000     0.324700000000     0.092600000000     0          
C33      C      0.953100000000     0.347000000000     0.265300000000     0          
H34      H      0.921300000000     0.355700000000     0.212400000000     0          
C35      C      0.948700000000     0.407100000000     0.329000000000     0          
H36      H      0.907400000000     0.453600000000     0.324700000000     0          
C45      C      0.046900000000     0.653000000000     0.265300000000     0          
H46      H      0.078700000000     0.644300000000     0.212400000000     0          
C47      C      0.051300000000     0.592900000000     0.329000000000     0          
H48      H      0.092600000000     0.546400000000     0.324700000000     0          
C57      C      0.953100000000     0.734700000000     0.347000000000     0          
H58      H      0.921300000000     0.787600000000     0.355700000000     0          
C59      C      0.948700000000     0.671000000000     0.407100000000     0          
H60      H      0.907400000000     0.675300000000     0.453600000000     0          
C61      C      0.046900000000     0.265300000000     0.347000000000     0          
H62      H      0.078700000000     0.212400000000     0.355700000000     0          
C63      C      0.051300000000     0.329000000000     0.407100000000     0          
H64      H      0.092600000000     0.324700000000     0.453600000000     0          
C65      C      0.265300000000     0.347000000000     0.046900000000     0          
H66      H      0.212400000000     0.355700000000     0.078700000000     0          
C67      C      0.329000000000     0.407100000000     0.051300000000     0          
H68      H      0.324700000000     0.453600000000     0.092600000000     0          
C69      C      0.734700000000     0.347000000000     0.953100000000     0          
H70      H      0.787600000000     0.355700000000     0.921300000000     0          
C71      C      0.671000000000     0.407100000000     0.948700000000     0          
H72      H      0.675300000000     0.453600000000     0.907400000000     0          
C89      C      0.653000000000     0.953100000000     0.265300000000     0          
H90      H      0.644300000000     0.921300000000     0.212400000000     0          
C91      C      0.592900000000     0.948700000000     0.329000000000     0          
H92      H      0.546400000000     0.907400000000     0.324700000000     0          
C93      C      0.653000000000     0.046900000000     0.734700000000     0          
H94      H      0.644300000000     0.078700000000     0.787600000000     0          
C95      C      0.592900000000     0.051300000000     0.671000000000     0          
H96      H      0.546400000000     0.092600000000     0.675300000000     0          
C101     C      0.265300000000     0.953100000000     0.653000000000     0          
H102     H      0.212400000000     0.921300000000     0.644300000000     0          
C103     C      0.329000000000     0.948700000000     0.592900000000     0          
H104     H      0.324700000000     0.907400000000     0.546400000000     0          
C105     C      0.265300000000     0.046900000000     0.347000000000     0          
H106     H      0.212400000000     0.078700000000     0.355700000000     0          
C107     C      0.329000000000     0.051300000000     0.407100000000     0          
H108     H      0.324700000000     0.092600000000     0.453600000000     0          
C113     C      0.653000000000     0.734700000000     0.046900000000     0          
H114     H      0.644300000000     0.787600000000     0.078700000000     0          
C115     C      0.592900000000     0.671000000000     0.051300000000     0          
H116     H      0.546400000000     0.675300000000     0.092600000000     0          
C125     C      0.347000000000     0.734700000000     0.953100000000     0          
H126     H      0.355700000000     0.787600000000     0.921300000000     0          
C127     C      0.407100000000     0.671000000000     0.948700000000     0          
H128     H      0.453600000000     0.675300000000     0.907400000000     0          
C129     C      0.046900000000     0.653000000000     0.734700000000     0          
H130     H      0.078700000000     0.644300000000     0.787600000000     0          
C131     C      0.051300000000     0.592900000000     0.671000000000     0          
H132     H      0.092600000000     0.546400000000     0.675300000000     0          
C141     C      0.953100000000     0.347000000000     0.734700000000     0          
H142     H      0.921300000000     0.355700000000     0.787600000000     0          
C143     C      0.948700000000     0.407100000000     0.671000000000     0          
H144     H      0.907400000000     0.453600000000     0.675300000000     0          
C153     C      0.046900000000     0.265300000000     0.653000000000     0          
H154     H      0.078700000000     0.212400000000     0.644300000000     0          
C155     C      0.051300000000     0.329000000000     0.592900000000     0          
H156     H      0.092600000000     0.324700000000     0.546400000000     0          
C157     C      0.953100000000     0.734700000000     0.653000000000     0          
H158     H      0.921300000000     0.787600000000     0.644300000000     0          
C159     C      0.948700000000     0.671000000000     0.592900000000     0          
H160     H      0.907400000000     0.675300000000     0.546400000000     0          
C161     C      0.734700000000     0.653000000000     0.953100000000     0          
H162     H      0.787600000000     0.644300000000     0.921300000000     0          
C163     C      0.671000000000     0.592900000000     0.948700000000     0          
H164     H      0.675300000000     0.546400000000     0.907400000000     0          
C165     C      0.265300000000     0.653000000000     0.046900000000     0          
H166     H      0.212400000000     0.644300000000     0.078700000000     0          
C167     C      0.329000000000     0.592900000000     0.051300000000     0          
H168     H      0.324700000000     0.546400000000     0.092600000000     0          
C185     C      0.347000000000     0.046900000000     0.734700000000     0          
H186     H      0.355700000000     0.078700000000     0.787600000000     0          
C187     C      0.407100000000     0.051300000000     0.671000000000     0          
H188     H      0.453600000000     0.092600000000     0.675300000000     0          
C189     C      0.347000000000     0.953100000000     0.265300000000     0          
H190     H      0.355700000000     0.921300000000     0.212400000000     0          
C191     C      0.407100000000     0.948700000000     0.329000000000     0          
H192     H      0.453600000000     0.907400000000     0.324700000000     0          
Zr193    Zr     0.000000000000     0.000000000000     0.160590000000     0          
Zr194    Zr     0.000000000000     0.000000000000     0.839410000000     0          
Zr195    Zr     0.160590000000     0.000000000000     0.000000000000     0          
Zr196    Zr     0.839410000000     0.000000000000     0.000000000000     0          
Zr197    Zr     0.000000000000     0.160590000000     0.000000000000     0          
Zr198    Zr     0.000000000000     0.839410000000     0.000000000000     0          
Co199    Co     0.500000000000     0.000000000000     0.500000000000     0          
Co200    Co     0.500000000000     0.500000000000     0.000000000000     0          
Co201    Co     0.000000000000     0.500000000000     0.500000000000     0          
O202     O      0.917700000000     0.082300000000     0.082300000000     0          
O203     O      0.082300000000     0.917700000000     0.082300000000     0          
O204     O      0.082300000000     0.082300000000     0.917700000000     0          
O208     O      0.082300000000     0.082300000000     0.082300000000     0          
Cl210    Cl     0.500000000000     0.158000000000     0.500000000000     0          
Cl212    Cl     0.500000000000     0.500000000000     0.158000000000     0          
Cl214    Cl     0.158000000000     0.500000000000     0.500000000000     0          
O216     O      0.127300000000     0.000000000000     0.231800000000     0          
O217     O      0.872700000000     0.000000000000     0.231800000000     0          
O218     O      0.872700000000     0.000000000000     0.768200000000     0          
O219     O      0.127300000000     0.000000000000     0.768200000000     0          
O220     O      0.231800000000     0.127300000000     0.000000000000     0          
O221     O      0.231800000000     0.872700000000     0.000000000000     0          
O222     O      0.768200000000     0.872700000000     0.000000000000     0          
O223     O      0.768200000000     0.127300000000     0.000000000000     0          
O224     O      0.000000000000     0.231800000000     0.127300000000     0          
O225     O      0.000000000000     0.231800000000     0.872700000000     0          
O226     O      0.000000000000     0.768200000000     0.872700000000     0          
O227     O      0.000000000000     0.768200000000     0.127300000000     0          
O228     O      0.000000000000     0.127300000000     0.768200000000     0          
O229     O      0.000000000000     0.872700000000     0.768200000000     0          
O230     O      0.000000000000     0.872700000000     0.231800000000     0          
O231     O      0.000000000000     0.127300000000     0.231800000000     0          
O232     O      0.127300000000     0.231800000000     0.000000000000     0          
O233     O      0.872700000000     0.231800000000     0.000000000000     0          
O234     O      0.872700000000     0.768200000000     0.000000000000     0          
O235     O      0.127300000000     0.768200000000     0.000000000000     0          
O236     O      0.231800000000     0.000000000000     0.872700000000     0          
O237     O      0.231800000000     0.000000000000     0.127300000000     0          
O238     O      0.768200000000     0.000000000000     0.127300000000     0          
O239     O      0.768200000000     0.000000000000     0.872700000000     0          
C240     C      0.273800000000     0.000000000000     0.273800000000     0          
C241     C      0.204900000000     0.000000000000     0.204900000000     0          
N242     N      0.399800000000     0.000000000000     0.399800000000     0          
C243     C      0.726200000000     0.000000000000     0.273800000000     0          
C244     C      0.795100000000     0.000000000000     0.204900000000     0          
N245     N      0.600200000000     0.000000000000     0.399800000000     0          
C246     C      0.726200000000     0.000000000000     0.726200000000     0          
C247     C      0.795100000000     0.000000000000     0.795100000000     0          
N248     N      0.600200000000     0.000000000000     0.600200000000     0          
C249     C      0.273800000000     0.000000000000     0.726200000000     0          
C250     C      0.204900000000     0.000000000000     0.795100000000     0          
N251     N      0.399800000000     0.000000000000     0.600200000000     0          
C252     C      0.273800000000     0.273800000000     0.000000000000     0          
C253     C      0.204900000000     0.204900000000     0.000000000000     0          
N254     N      0.399800000000     0.399800000000     0.000000000000     0          
C255     C      0.273800000000     0.726200000000     0.000000000000     0          
C256     C      0.204900000000     0.795100000000     0.000000000000     0          
N257     N      0.399800000000     0.600200000000     0.000000000000     0          
C258     C      0.726200000000     0.726200000000     0.000000000000     0          
C259     C      0.795100000000     0.795100000000     0.000000000000     0          
N260     N      0.600200000000     0.600200000000     0.000000000000     0          
C261     C      0.726200000000     0.273800000000     0.000000000000     0          
C262     C      0.795100000000     0.204900000000     0.000000000000     0          
N263     N      0.600200000000     0.399800000000     0.000000000000     0          
C264     C      0.000000000000     0.273800000000     0.273800000000     0          
C265     C      0.000000000000     0.204900000000     0.204900000000     0          
N266     N      0.000000000000     0.399800000000     0.399800000000     0          
C267     C      0.000000000000     0.273800000000     0.726200000000     0          
C268     C      0.000000000000     0.204900000000     0.795100000000     0          
N269     N      0.000000000000     0.399800000000     0.600200000000     0          
C270     C      0.000000000000     0.726200000000     0.726200000000     0          
C271     C      0.000000000000     0.795100000000     0.795100000000     0          
N272     N      0.000000000000     0.600200000000     0.600200000000     0          
C273     C      0.000000000000     0.726200000000     0.273800000000     0          
C274     C      0.000000000000     0.795100000000     0.204900000000     0          
N275     N      0.000000000000     0.600200000000     0.399800000000     0          
O205     O      0.917700000000     0.917700000000     0.917700000000     0          
O206     O      0.082300000000     0.917700000000     0.917700000000     0          
O207     O      0.917700000000     0.082300000000     0.917700000000     0          
O209     O      0.917700000000     0.917700000000     0.082300000000     0          
Cl211    Cl     0.500000000000     0.842000000000     0.500000000000     0          
Cl213    Cl     0.500000000000     0.500000000000     0.842000000000     0          
Cl215    Cl     0.842000000000     0.500000000000     0.500000000000     0          


