data_TEYZAB

_audit_creation_method RASPA-1.0
_audit_creation_date 2020-11-2
_audit_author_name 'Rocio Bueno-Perez'

_cell_length_a    15.7186
_cell_length_b    15.7186
_cell_length_c    29.22
_cell_angle_alpha 90
_cell_angle_beta  90
_cell_angle_gamma 90
_cell_volume      7219.51

_symmetry_cell_setting          triclinic
_symmetry_space_group_name_Hall 'P 1'
_symmetry_space_group_name_H-M  'P 1'
_symmetry_Int_Tables_number     1

_symmetry_equiv_pos_as_xyz 'x,y,z'

loop_
_atom_site_label
_atom_site_type_symbol
_atom_site_fract_x
_atom_site_fract_y
_atom_site_fract_z
_atom_site_charge
C1       C      0.531500000000     0.306200000000     0.389800000000     0          
C2       C      0.531100000000     0.236500000000     0.354600000000     0          
C3       C      0.496400000000     0.248600000000     0.311600000000     0          
C4       C      0.492400000000     0.179500000000     0.281700000000     0          
C5       C      0.558300000000     0.092900000000     0.332500000000     0          
C6       C      0.564600000000     0.156900000000     0.364600000000     0          
C7       C      0.708400000000     0.266000000000     0.536700000000     0          
C8       C      0.776800000000     0.200800000000     0.526300000000     0          
N9       N      0.902800000000     0.080600000000     0.509600000000     0          
C10      C      0.902400000000     0.125600000000     0.550600000000     0          
C11      C      0.839400000000     0.185700000000     0.558900000000     0          
N12      N      0.521700000000     0.102800000000     0.291600000000     0          
O13      O      0.438000000000     0.405400000000     0.541800000000     0          
O14      O      0.543800000000     0.282800000000     0.430100000000     0          
O15      O      0.519400000000     0.381000000000     0.375950000000     0          
O16      O      0.713800000000     0.306700000000     0.573500000000     0          
C17      C      0.840200000000     0.095700000000     0.477000000000     0          
C18      C      0.777200000000     0.155800000000     0.485300000000     0          
C19      C      0.031500000000     0.806200000000     0.889800000000     0          
C20      C      0.031100000000     0.736500000000     0.854600000000     0          
C21      C      0.996400000000     0.748600000000     0.811600000000     0          
C22      C      0.992400000000     0.679500000000     0.781700000000     0          
C23      C      0.058300000000     0.592900000000     0.832500000000     0          
C24      C      0.064600000000     0.656900000000     0.864600000000     0          
C25      C      0.208400000000     0.766000000000     0.036700000000     0          
C26      C      0.276800000000     0.700800000000     0.026300000000     0          
N27      N      0.402800000000     0.580600000000     0.009600000000     0          
C28      C      0.402400000000     0.625600000000     0.050600000000     0          
C29      C      0.339400000000     0.685700000000     0.058900000000     0          
N30      N      0.021700000000     0.602800000000     0.791600000000     0          
O31      O      0.938000000000     0.905400000000     0.041800000000     0          
O32      O      0.043800000000     0.782800000000     0.930100000000     0          
O33      O      0.019400000000     0.881000000000     0.875950000000     0          
O34      O      0.213800000000     0.806700000000     0.073500000000     0          
C35      C      0.340200000000     0.595700000000     0.977000000000     0          
C36      C      0.277200000000     0.655800000000     0.985300000000     0          
C37      C      0.468500000000     0.693800000000     0.389800000000     0          
C38      C      0.468900000000     0.763500000000     0.354600000000     0          
C39      C      0.503600000000     0.751400000000     0.311600000000     0          
C40      C      0.507600000000     0.820500000000     0.281700000000     0          
C41      C      0.441700000000     0.907100000000     0.332500000000     0          
C42      C      0.435400000000     0.843100000000     0.364600000000     0          
C43      C      0.291600000000     0.734000000000     0.536700000000     0          
C44      C      0.223200000000     0.799200000000     0.526300000000     0          
N45      N      0.097200000000     0.919400000000     0.509600000000     0          
C46      C      0.097600000000     0.874400000000     0.550600000000     0          
C47      C      0.160600000000     0.814300000000     0.558900000000     0          
N48      N      0.478300000000     0.897200000000     0.291600000000     0          
O49      O      0.562000000000     0.594600000000     0.541800000000     0          
O50      O      0.456200000000     0.717200000000     0.430100000000     0          
O51      O      0.480600000000     0.619000000000     0.375950000000     0          
O52      O      0.286200000000     0.693300000000     0.573500000000     0          
C53      C      0.159800000000     0.904300000000     0.477000000000     0          
C54      C      0.222800000000     0.844200000000     0.485300000000     0          
O67      O      0.062000000000     0.094600000000     0.041800000000     0          
C73      C      0.693800000000     0.531500000000     0.389800000000     0          
C74      C      0.763500000000     0.531100000000     0.354600000000     0          
C75      C      0.751400000000     0.496400000000     0.311600000000     0          
C76      C      0.820500000000     0.492400000000     0.281700000000     0          
C77      C      0.907100000000     0.558300000000     0.332500000000     0          
C78      C      0.843100000000     0.564600000000     0.364600000000     0          
C79      C      0.734000000000     0.708400000000     0.536700000000     0          
C80      C      0.799200000000     0.776800000000     0.526300000000     0          
N81      N      0.919400000000     0.902800000000     0.509600000000     0          
C82      C      0.874400000000     0.902400000000     0.550600000000     0          
C83      C      0.814300000000     0.839400000000     0.558900000000     0          
N84      N      0.897200000000     0.521700000000     0.291600000000     0          
O85      O      0.594600000000     0.438000000000     0.541800000000     0          
O86      O      0.717200000000     0.543800000000     0.430100000000     0          
O87      O      0.619000000000     0.519400000000     0.375950000000     0          
O88      O      0.693300000000     0.713800000000     0.573500000000     0          
C89      C      0.904300000000     0.840200000000     0.477000000000     0          
C90      C      0.844200000000     0.777200000000     0.485300000000     0          
C91      C      0.193800000000     0.031500000000     0.889800000000     0          
C92      C      0.263500000000     0.031100000000     0.854600000000     0          
C93      C      0.251400000000     0.996400000000     0.811600000000     0          
C94      C      0.320500000000     0.992400000000     0.781700000000     0          
C95      C      0.407100000000     0.058300000000     0.832500000000     0          
C96      C      0.343100000000     0.064600000000     0.864600000000     0          
N102     N      0.397200000000     0.021700000000     0.791600000000     0          
O103     O      0.094600000000     0.938000000000     0.041800000000     0          
O104     O      0.217200000000     0.043800000000     0.930100000000     0          
O105     O      0.119000000000     0.019400000000     0.875950000000     0          
C109     C      0.306200000000     0.468500000000     0.389800000000     0          
C110     C      0.236500000000     0.468900000000     0.354600000000     0          
C111     C      0.248600000000     0.503600000000     0.311600000000     0          
C112     C      0.179500000000     0.507600000000     0.281700000000     0          
C113     C      0.092900000000     0.441700000000     0.332500000000     0          
C114     C      0.156900000000     0.435400000000     0.364600000000     0          
C115     C      0.266000000000     0.291600000000     0.536700000000     0          
C116     C      0.200800000000     0.223200000000     0.526300000000     0          
N117     N      0.080600000000     0.097200000000     0.509600000000     0          
C118     C      0.125600000000     0.097600000000     0.550600000000     0          
C119     C      0.185700000000     0.160600000000     0.558900000000     0          
N120     N      0.102800000000     0.478300000000     0.291600000000     0          
O121     O      0.405400000000     0.562000000000     0.541800000000     0          
O122     O      0.282800000000     0.456200000000     0.430100000000     0          
O123     O      0.381000000000     0.480600000000     0.375950000000     0          
O124     O      0.306700000000     0.286200000000     0.573500000000     0          
C125     C      0.095700000000     0.159800000000     0.477000000000     0          
C126     C      0.155800000000     0.222800000000     0.485300000000     0          
C133     C      0.766000000000     0.791600000000     0.036700000000     0          
C134     C      0.700800000000     0.723200000000     0.026300000000     0          
N135     N      0.580600000000     0.597200000000     0.009600000000     0          
C136     C      0.625600000000     0.597600000000     0.050600000000     0          
C137     C      0.685700000000     0.660600000000     0.058900000000     0          
O139     O      0.905400000000     0.062000000000     0.041800000000     0          
O142     O      0.806700000000     0.786200000000     0.073500000000     0          
C143     C      0.595700000000     0.659800000000     0.977000000000     0          
C144     C      0.655800000000     0.722800000000     0.985300000000     0          
C145     C      0.468500000000     0.693800000000     0.610200000000     0          
C146     C      0.468900000000     0.763500000000     0.645400000000     0          
C147     C      0.503600000000     0.751400000000     0.688400000000     0          
C148     C      0.507600000000     0.820500000000     0.718300000000     0          
C149     C      0.441700000000     0.907100000000     0.667500000000     0          
C150     C      0.435400000000     0.843100000000     0.635400000000     0          
N156     N      0.478300000000     0.897200000000     0.708400000000     0          
O157     O      0.562000000000     0.594600000000     0.458200000000     0          
O158     O      0.456200000000     0.717200000000     0.569900000000     0          
O159     O      0.480600000000     0.619000000000     0.624050000000     0          
C163     C      0.968500000000     0.193800000000     0.110200000000     0          
C164     C      0.968900000000     0.263500000000     0.145400000000     0          
C165     C      0.003600000000     0.251400000000     0.188400000000     0          
C166     C      0.007600000000     0.320500000000     0.218300000000     0          
C167     C      0.941700000000     0.407100000000     0.167500000000     0          
C168     C      0.935400000000     0.343100000000     0.135400000000     0          
C169     C      0.791600000000     0.234000000000     0.963300000000     0          
C170     C      0.723200000000     0.299200000000     0.973700000000     0          
N171     N      0.597200000000     0.419400000000     0.990400000000     0          
C172     C      0.597600000000     0.374400000000     0.949400000000     0          
C173     C      0.660600000000     0.314300000000     0.941100000000     0          
N174     N      0.978300000000     0.397200000000     0.208400000000     0          
O175     O      0.062000000000     0.094600000000     0.958200000000     0          
O176     O      0.956200000000     0.217200000000     0.069900000000     0          
O177     O      0.980600000000     0.119000000000     0.124050000000     0          
O178     O      0.786200000000     0.193300000000     0.926500000000     0          
C179     C      0.659800000000     0.404300000000     0.023000000000     0          
C180     C      0.722800000000     0.344200000000     0.014700000000     0          
C181     C      0.531500000000     0.306200000000     0.610200000000     0          
C182     C      0.531100000000     0.236500000000     0.645400000000     0          
C183     C      0.496400000000     0.248600000000     0.688400000000     0          
C184     C      0.492400000000     0.179500000000     0.718300000000     0          
C185     C      0.558300000000     0.092900000000     0.667500000000     0          
C186     C      0.564600000000     0.156900000000     0.635400000000     0          
N192     N      0.521700000000     0.102800000000     0.708400000000     0          
O193     O      0.438000000000     0.405400000000     0.458200000000     0          
O194     O      0.543800000000     0.282800000000     0.569900000000     0          
O195     O      0.519400000000     0.381000000000     0.624050000000     0          
C199     C      0.031500000000     0.806200000000     0.110200000000     0          
C200     C      0.031100000000     0.736500000000     0.145400000000     0          
C201     C      0.996400000000     0.748600000000     0.188400000000     0          
C202     C      0.992400000000     0.679500000000     0.218300000000     0          
C203     C      0.058300000000     0.592900000000     0.167500000000     0          
C204     C      0.064600000000     0.656900000000     0.135400000000     0          
N210     N      0.021700000000     0.602800000000     0.208400000000     0          
O212     O      0.043800000000     0.782800000000     0.069900000000     0          
O213     O      0.019400000000     0.881000000000     0.124050000000     0          
C217     C      0.306200000000     0.468500000000     0.610200000000     0          
C218     C      0.236500000000     0.468900000000     0.645400000000     0          
C219     C      0.248600000000     0.503600000000     0.688400000000     0          
C220     C      0.179500000000     0.507600000000     0.718300000000     0          
C221     C      0.092900000000     0.441700000000     0.667500000000     0          
C222     C      0.156900000000     0.435400000000     0.635400000000     0          
N228     N      0.102800000000     0.478300000000     0.708400000000     0          
O229     O      0.405400000000     0.562000000000     0.458200000000     0          
O230     O      0.282800000000     0.456200000000     0.569900000000     0          
O231     O      0.381000000000     0.480600000000     0.624050000000     0          
C235     C      0.806200000000     0.968500000000     0.110200000000     0          
C236     C      0.736500000000     0.968900000000     0.145400000000     0          
C237     C      0.748600000000     0.003600000000     0.188400000000     0          
C238     C      0.679500000000     0.007600000000     0.218300000000     0          
C239     C      0.592900000000     0.941700000000     0.167500000000     0          
C240     C      0.656900000000     0.935400000000     0.135400000000     0          
N246     N      0.602800000000     0.978300000000     0.208400000000     0          
O248     O      0.782800000000     0.956200000000     0.069900000000     0          
O249     O      0.881000000000     0.980600000000     0.124050000000     0          
C253     C      0.693800000000     0.531500000000     0.610200000000     0          
C254     C      0.763500000000     0.531100000000     0.645400000000     0          
C255     C      0.751400000000     0.496400000000     0.688400000000     0          
C256     C      0.820500000000     0.492400000000     0.718300000000     0          
C257     C      0.907100000000     0.558300000000     0.667500000000     0          
C258     C      0.843100000000     0.564600000000     0.635400000000     0          
N264     N      0.897200000000     0.521700000000     0.708400000000     0          
O265     O      0.594600000000     0.438000000000     0.458200000000     0          
O266     O      0.717200000000     0.543800000000     0.569900000000     0          
O267     O      0.619000000000     0.519400000000     0.624050000000     0          
C271     C      0.193800000000     0.031500000000     0.110200000000     0          
C272     C      0.263500000000     0.031100000000     0.145400000000     0          
C273     C      0.251400000000     0.996400000000     0.188400000000     0          
C274     C      0.320500000000     0.992400000000     0.218300000000     0          
C275     C      0.407100000000     0.058300000000     0.167500000000     0          
C276     C      0.343100000000     0.064600000000     0.135400000000     0          
C277     C      0.234000000000     0.208400000000     0.963300000000     0          
C278     C      0.299200000000     0.276800000000     0.973700000000     0          
N279     N      0.419400000000     0.402800000000     0.990400000000     0          
C280     C      0.374400000000     0.402400000000     0.949400000000     0          
C281     C      0.314300000000     0.339400000000     0.941100000000     0          
N282     N      0.397200000000     0.021700000000     0.208400000000     0          
O284     O      0.217200000000     0.043800000000     0.069900000000     0          
O285     O      0.119000000000     0.019400000000     0.124050000000     0          
O286     O      0.193300000000     0.213800000000     0.926500000000     0          
C287     C      0.404300000000     0.340200000000     0.023000000000     0          
C288     C      0.344200000000     0.277200000000     0.014700000000     0          
Cu289    Cu     0.000000000000     0.000000000000     0.500000000000     0          
Cu290    Cu     0.500000000000     0.500000000000     0.000000000000     0          
Cu291    Cu     0.500000000000     0.000000000000     0.250000000000     0          
Cu292    Cu     0.000000000000     0.500000000000     0.250000000000     0          
Cu293    Cu     0.500000000000     0.000000000000     0.750000000000     0          
Cu294    Cu     0.000000000000     0.500000000000     0.750000000000     0          
O295     O      0.452300000000     0.232200000000     0.500000000000     0          
O296     O      0.651500000000     0.273900000000     0.500000000000     0          
Zr297    Zr     0.532760000000     0.344340000000     0.500000000000     0          
O299     O      0.151500000000     0.773900000000     0.000000000000     0          
Zr300    Zr     0.032760000000     0.844340000000     0.000000000000     0          
O301     O      0.547700000000     0.767800000000     0.500000000000     0          
O302     O      0.348500000000     0.726100000000     0.500000000000     0          
Zr303    Zr     0.467240000000     0.655660000000     0.500000000000     0          
O305     O      0.848500000000     0.226100000000     0.000000000000     0          
Zr306    Zr     0.967240000000     0.155660000000     0.000000000000     0          
O307     O      0.767800000000     0.452300000000     0.500000000000     0          
O308     O      0.726100000000     0.651500000000     0.500000000000     0          
Zr309    Zr     0.655660000000     0.532760000000     0.500000000000     0          
O311     O      0.226100000000     0.151500000000     0.000000000000     0          
Zr312    Zr     0.155660000000     0.032760000000     0.000000000000     0          
O313     O      0.232200000000     0.547700000000     0.500000000000     0          
O314     O      0.273900000000     0.348500000000     0.500000000000     0          
Zr315    Zr     0.344340000000     0.467240000000     0.500000000000     0          
O317     O      0.773900000000     0.848500000000     0.000000000000     0          
Zr318    Zr     0.844340000000     0.967240000000     0.000000000000     0          
Zr319    Zr     0.500000000000     0.500000000000     0.584240000000     0          
Zr320    Zr     0.000000000000     0.000000000000     0.084240000000     0          
Zr321    Zr     0.500000000000     0.500000000000     0.415760000000     0          
Zr322    Zr     0.000000000000     0.000000000000     0.915760000000     0          
C55      C      0.968500000000     0.193800000000     0.889800000000     0          
C56      C      0.968900000000     0.263500000000     0.854600000000     0          
C57      C      0.003600000000     0.251400000000     0.811600000000     0          
C58      C      0.007600000000     0.320500000000     0.781700000000     0          
C59      C      0.941700000000     0.407100000000     0.832500000000     0          
C60      C      0.935400000000     0.343100000000     0.864600000000     0          
N66      N      0.978300000000     0.397200000000     0.791600000000     0          
O68      O      0.956200000000     0.217200000000     0.930100000000     0          
O69      O      0.980600000000     0.119000000000     0.875950000000     0          
C127     C      0.806200000000     0.968500000000     0.889800000000     0          
C128     C      0.736500000000     0.968900000000     0.854600000000     0          
C129     C      0.748600000000     0.003600000000     0.811600000000     0          
C130     C      0.679500000000     0.007600000000     0.781700000000     0          
C131     C      0.592900000000     0.941700000000     0.832500000000     0          
C132     C      0.656900000000     0.935400000000     0.864600000000     0          
N138     N      0.602800000000     0.978300000000     0.791600000000     0          
O140     O      0.782800000000     0.956200000000     0.930100000000     0          
O141     O      0.881000000000     0.980600000000     0.875950000000     0          
O211     O      0.938000000000     0.905400000000     0.958200000000     0          
O247     O      0.905400000000     0.062000000000     0.958200000000     0          
O283     O      0.094600000000     0.938000000000     0.958200000000     0          
O298     O      0.952300000000     0.732200000000     0.000000000000     0          
O304     O      0.047700000000     0.267800000000     0.000000000000     0          
O310     O      0.267800000000     0.952300000000     0.000000000000     0          
O316     O      0.732200000000     0.047700000000     0.000000000000     0          
N153     N      0.097200000000     0.919400000000     0.490400000000     0          
N261     N      0.919400000000     0.902800000000     0.490400000000     0          
H1       H      0.166090000000     0.193170000000     0.590060000000     0          
H2       H      0.158750000000     0.036900000000     0.552750000000     0          
H3       H      0.202640000000     0.218680000000     0.457930000000     0          
H4       H      0.035340000000     0.192010000000     0.471120000000     0          
H5       H      0.532770000000     0.134400000000     0.395410000000     0          
H6       H      0.523740000000     0.041490000000     0.349190000000     0          
H8       H      0.533850000000     0.297790000000     0.294780000000     0          
H9       H      0.526160000000     0.199330000000     0.250950000000     0          
H10      H      0.228770000000     0.931560000000     0.183490000000     0          
H11      H      0.329020000000     0.925220000000     0.226180000000     0          
H12      H      0.334150000000     0.132050000000     0.128370000000     0          
H13      H      0.427400000000     0.123280000000     0.174400000000     0          
H14      H      0.134400000000     0.467230000000     0.395410000000     0          
H15      H      0.041490000000     0.476260000000     0.349190000000     0          
H16      H      0.297790000000     0.466150000000     0.294780000000     0          
H17      H      0.199330000000     0.473840000000     0.250950000000     0          
H18      H      0.925220000000     0.670980000000     0.226180000000     0          
H19      H      0.931560000000     0.771230000000     0.183490000000     0          
H20      H      0.132050000000     0.665850000000     0.128370000000     0          
H21      H      0.123280000000     0.572590000000     0.174400000000     0          
H22      H      0.218680000000     0.797360000000     0.457930000000     0          
H23      H      0.192010000000     0.964660000000     0.471120000000     0          
H24      H      0.036900000000     0.841250000000     0.552750000000     0          
H25      H      0.193170000000     0.833910000000     0.590060000000     0          
H26      H      0.033850000000     0.797790000000     0.794780000000     0          
H27      H      0.026160000000     0.699330000000     0.750950000000     0          
H28      H      0.032770000000     0.634400000000     0.895410000000     0          
H29      H      0.023740000000     0.541490000000     0.849190000000     0          
H30      H      0.967230000000     0.365600000000     0.895410000000     0          
H31      H      0.976260000000     0.458510000000     0.849190000000     0          
H32      H      0.966150000000     0.202210000000     0.794780000000     0          
H33      H      0.973840000000     0.300660000000     0.750950000000     0          
H34      H      0.170980000000     0.574780000000     0.726180000000     0          
H35      H      0.271230000000     0.568440000000     0.683490000000     0          
H36      H      0.072590000000     0.376720000000     0.674400000000     0          
H37      H      0.165850000000     0.367950000000     0.628370000000     0          
H38      H      0.365600000000     0.032770000000     0.895410000000     0          
H39      H      0.458510000000     0.023740000000     0.849190000000     0          
H40      H      0.202210000000     0.033850000000     0.794780000000     0          
H41      H      0.300660000000     0.026160000000     0.750950000000     0          
H42      H      0.728770000000     0.431560000000     0.683490000000     0          
H43      H      0.829020000000     0.425220000000     0.726180000000     0          
H44      H      0.834150000000     0.632050000000     0.628370000000     0          
H45      H      0.927400000000     0.623280000000     0.674400000000     0          
H46      H      0.699330000000     0.973840000000     0.750950000000     0          
H47      H      0.797790000000     0.966150000000     0.794780000000     0          
H48      H      0.634400000000     0.967230000000     0.895410000000     0          
H49      H      0.541490000000     0.976260000000     0.849190000000     0          
H50      H      0.806830000000     0.166090000000     0.590060000000     0          
H51      H      0.963100000000     0.158750000000     0.552750000000     0          
H52      H      0.781320000000     0.202640000000     0.457930000000     0          
H53      H      0.807990000000     0.035340000000     0.471120000000     0          
H54      H      0.702210000000     0.533850000000     0.294780000000     0          
H55      H      0.865600000000     0.532770000000     0.395410000000     0          
H56      H      0.800660000000     0.526160000000     0.250950000000     0          
H57      H      0.958510000000     0.523740000000     0.349190000000     0          
H58      H      0.797360000000     0.781320000000     0.457930000000     0          
H59      H      0.964660000000     0.807990000000     0.471120000000     0          
H60      H      0.833910000000     0.806830000000     0.590060000000     0          
H61      H      0.841250000000     0.963100000000     0.552750000000     0          
H62      H      0.876720000000     0.427400000000     0.174400000000     0          
H63      H      0.867950000000     0.334150000000     0.128370000000     0          
H64      H      0.074780000000     0.329020000000     0.226180000000     0          
H65      H      0.068440000000     0.228770000000     0.183490000000     0          
H66      H      0.670980000000     0.074780000000     0.226180000000     0          
H67      H      0.771230000000     0.068440000000     0.183490000000     0          
H68      H      0.572590000000     0.876720000000     0.174400000000     0          
H69      H      0.665850000000     0.867950000000     0.128370000000     0          
H70      H      0.666090000000     0.693170000000     0.090060000000     0          
H71      H      0.658750000000     0.536900000000     0.052750000000     0          
H72      H      0.702640000000     0.718680000000     0.957930000000     0          
H73      H      0.535340000000     0.692010000000     0.971120000000     0          
H74      H      0.306830000000     0.666090000000     0.090060000000     0          
H75      H      0.281320000000     0.702640000000     0.957930000000     0          
H76      H      0.463100000000     0.658750000000     0.052750000000     0          
H77      H      0.307990000000     0.535340000000     0.971120000000     0          
H78      H      0.421240000000     0.398280000000     0.922030000000     0          
H79      H      0.253940000000     0.371610000000     0.935220000000     0          
H80      H      0.384690000000     0.372770000000     0.054160000000     0          
H81      H      0.377350000000     0.216500000000     0.016850000000     0          
H82      H      0.601720000000     0.421240000000     0.922030000000     0          
H83      H      0.628390000000     0.253940000000     0.935220000000     0          
H84      H      0.783500000000     0.377350000000     0.016850000000     0          
H85      H      0.627230000000     0.384690000000     0.054160000000     0          
H86      H      0.376720000000     0.927400000000     0.674400000000     0          
H87      H      0.367950000000     0.834150000000     0.628370000000     0          
H88      H      0.568440000000     0.728770000000     0.683490000000     0          
H89      H      0.574780000000     0.829020000000     0.726180000000     0          
H90      H      0.623280000000     0.072590000000     0.674400000000     0          
H91      H      0.632050000000     0.165850000000     0.628370000000     0          
H92      H      0.431560000000     0.271230000000     0.683490000000     0          
H93      H      0.425220000000     0.170980000000     0.726180000000     0          
H94      H      0.473840000000     0.800660000000     0.250950000000     0          
H95      H      0.466150000000     0.702210000000     0.294780000000     0          
H96      H      0.467230000000     0.865600000000     0.395410000000     0          
H97      H      0.476260000000     0.958510000000     0.349190000000     0          


