data_TOJNEN

_audit_creation_method RASPA-1.0
_audit_creation_date 2020-12-11
_audit_author_name 'Rocio Bueno-Perez'

_cell_length_a    15.7838
_cell_length_b    15.7838
_cell_length_c    15.7838
_cell_angle_alpha 90
_cell_angle_beta  90
_cell_angle_gamma 90
_cell_volume      3932.19

_symmetry_cell_setting          triclinic
_symmetry_space_group_name_Hall 'P 1'
_symmetry_space_group_name_H-M  'P 1'
_symmetry_Int_Tables_number     1

_symmetry_equiv_pos_as_xyz 'x,y,z'

loop_
_atom_site_label
_atom_site_type_symbol
_atom_site_fract_x
_atom_site_fract_y
_atom_site_fract_z
_atom_site_charge
Zr1      Zr     0.158150000000     0.000000000000     0.000000000000     0          
Zr2      Zr     0.158150000000     0.500000000000     0.500000000000     0          
Zr3      Zr     0.658150000000     0.000000000000     0.500000000000     0          
Zr4      Zr     0.658150000000     0.500000000000     0.000000000000     0          
Zr5      Zr     0.841850000000     0.000000000000     0.000000000000     0          
Zr6      Zr     0.841850000000     0.500000000000     0.500000000000     0          
Zr7      Zr     0.341850000000     0.000000000000     0.500000000000     0          
Zr8      Zr     0.341850000000     0.500000000000     0.000000000000     0          
Zr9      Zr     0.000000000000     0.158150000000     0.000000000000     0          
Zr10     Zr     0.000000000000     0.658150000000     0.500000000000     0          
Zr11     Zr     0.500000000000     0.158150000000     0.500000000000     0          
Zr12     Zr     0.500000000000     0.658150000000     0.000000000000     0          
Zr13     Zr     0.000000000000     0.841850000000     0.000000000000     0          
Zr14     Zr     0.000000000000     0.341850000000     0.500000000000     0          
Zr15     Zr     0.500000000000     0.841850000000     0.500000000000     0          
Zr16     Zr     0.500000000000     0.341850000000     0.000000000000     0          
Zr17     Zr     0.000000000000     0.000000000000     0.158150000000     0          
Zr18     Zr     0.000000000000     0.500000000000     0.658150000000     0          
Zr19     Zr     0.500000000000     0.000000000000     0.658150000000     0          
Zr20     Zr     0.500000000000     0.500000000000     0.158150000000     0          
Zr21     Zr     0.000000000000     0.000000000000     0.841850000000     0          
Zr22     Zr     0.000000000000     0.500000000000     0.341850000000     0          
Zr23     Zr     0.500000000000     0.000000000000     0.341850000000     0          
Zr24     Zr     0.500000000000     0.500000000000     0.841850000000     0          
O25      O      0.241500000000     0.000000000000     0.109200000000     0          
C26      C      0.249900000000     0.000000000000     0.184900000000     0          
O27      O      0.241500000000     0.500000000000     0.609200000000     0          
C28      C      0.249900000000     0.500000000000     0.684900000000     0          
O29      O      0.741500000000     0.000000000000     0.609200000000     0          
C30      C      0.749900000000     0.000000000000     0.684900000000     0          
O31      O      0.741500000000     0.500000000000     0.109200000000     0          
C32      C      0.749900000000     0.500000000000     0.184900000000     0          
O33      O      0.758500000000     0.000000000000     0.109200000000     0          
C34      C      0.750100000000     0.000000000000     0.184900000000     0          
O35      O      0.758500000000     0.500000000000     0.609200000000     0          
C36      C      0.750100000000     0.500000000000     0.684900000000     0          
O37      O      0.258500000000     0.000000000000     0.609200000000     0          
C38      C      0.250100000000     0.000000000000     0.684900000000     0          
O39      O      0.258500000000     0.500000000000     0.109200000000     0          
C40      C      0.250100000000     0.500000000000     0.184900000000     0          
O41      O      0.758500000000     0.000000000000     0.890800000000     0          
C42      C      0.750100000000     0.000000000000     0.815100000000     0          
O43      O      0.758500000000     0.500000000000     0.390800000000     0          
C44      C      0.750100000000     0.500000000000     0.315100000000     0          
O45      O      0.258500000000     0.000000000000     0.390800000000     0          
C46      C      0.250100000000     0.000000000000     0.315100000000     0          
O47      O      0.258500000000     0.500000000000     0.890800000000     0          
C48      C      0.250100000000     0.500000000000     0.815100000000     0          
O49      O      0.241500000000     0.000000000000     0.890800000000     0          
C50      C      0.249900000000     0.000000000000     0.815100000000     0          
O51      O      0.241500000000     0.500000000000     0.390800000000     0          
C52      C      0.249900000000     0.500000000000     0.315100000000     0          
O53      O      0.741500000000     0.000000000000     0.390800000000     0          
C54      C      0.749900000000     0.000000000000     0.315100000000     0          
O55      O      0.741500000000     0.500000000000     0.890800000000     0          
C56      C      0.749900000000     0.500000000000     0.815100000000     0          
O57      O      0.109200000000     0.241500000000     0.000000000000     0          
C58      C      0.184900000000     0.249900000000     0.000000000000     0          
O59      O      0.109200000000     0.741500000000     0.500000000000     0          
C60      C      0.184900000000     0.749900000000     0.500000000000     0          
O61      O      0.609200000000     0.241500000000     0.500000000000     0          
C62      C      0.684900000000     0.249900000000     0.500000000000     0          
O63      O      0.609200000000     0.741500000000     0.000000000000     0          
C64      C      0.684900000000     0.749900000000     0.000000000000     0          
O65      O      0.109200000000     0.758500000000     0.000000000000     0          
C66      C      0.184900000000     0.750100000000     0.000000000000     0          
O67      O      0.109200000000     0.258500000000     0.500000000000     0          
C68      C      0.184900000000     0.250100000000     0.500000000000     0          
O69      O      0.609200000000     0.758500000000     0.500000000000     0          
C70      C      0.684900000000     0.750100000000     0.500000000000     0          
O71      O      0.609200000000     0.258500000000     0.000000000000     0          
C72      C      0.684900000000     0.250100000000     0.000000000000     0          
O73      O      0.890800000000     0.758500000000     0.000000000000     0          
C74      C      0.815100000000     0.750100000000     0.000000000000     0          
O75      O      0.890800000000     0.258500000000     0.500000000000     0          
C76      C      0.815100000000     0.250100000000     0.500000000000     0          
O77      O      0.390800000000     0.758500000000     0.500000000000     0          
C78      C      0.315100000000     0.750100000000     0.500000000000     0          
O79      O      0.390800000000     0.258500000000     0.000000000000     0          
C80      C      0.315100000000     0.250100000000     0.000000000000     0          
O81      O      0.890800000000     0.241500000000     0.000000000000     0          
C82      C      0.815100000000     0.249900000000     0.000000000000     0          
O83      O      0.890800000000     0.741500000000     0.500000000000     0          
C84      C      0.815100000000     0.749900000000     0.500000000000     0          
O85      O      0.390800000000     0.241500000000     0.500000000000     0          
C86      C      0.315100000000     0.249900000000     0.500000000000     0          
O87      O      0.390800000000     0.741500000000     0.000000000000     0          
C88      C      0.315100000000     0.749900000000     0.000000000000     0          
O89      O      0.000000000000     0.109200000000     0.241500000000     0          
C90      C      0.000000000000     0.184900000000     0.249900000000     0          
O91      O      0.000000000000     0.609200000000     0.741500000000     0          
C92      C      0.000000000000     0.684900000000     0.749900000000     0          
O93      O      0.500000000000     0.109200000000     0.741500000000     0          
C94      C      0.500000000000     0.184900000000     0.749900000000     0          
O95      O      0.500000000000     0.609200000000     0.241500000000     0          
C96      C      0.500000000000     0.684900000000     0.249900000000     0          
O97      O      0.000000000000     0.109200000000     0.758500000000     0          
C98      C      0.000000000000     0.184900000000     0.750100000000     0          
O99      O      0.000000000000     0.609200000000     0.258500000000     0          
C100     C      0.000000000000     0.684900000000     0.250100000000     0          
O101     O      0.500000000000     0.109200000000     0.258500000000     0          
C102     C      0.500000000000     0.184900000000     0.250100000000     0          
O103     O      0.500000000000     0.609200000000     0.758500000000     0          
C104     C      0.500000000000     0.684900000000     0.750100000000     0          
O105     O      0.000000000000     0.890800000000     0.758500000000     0          
C106     C      0.000000000000     0.815100000000     0.750100000000     0          
O107     O      0.000000000000     0.390800000000     0.258500000000     0          
C108     C      0.000000000000     0.315100000000     0.250100000000     0          
O109     O      0.500000000000     0.890800000000     0.258500000000     0          
C110     C      0.500000000000     0.815100000000     0.250100000000     0          
O111     O      0.500000000000     0.390800000000     0.758500000000     0          
C112     C      0.500000000000     0.315100000000     0.750100000000     0          
O113     O      0.000000000000     0.890800000000     0.241500000000     0          
C114     C      0.000000000000     0.815100000000     0.249900000000     0          
O115     O      0.000000000000     0.390800000000     0.741500000000     0          
C116     C      0.000000000000     0.315100000000     0.749900000000     0          
O117     O      0.500000000000     0.890800000000     0.741500000000     0          
C118     C      0.500000000000     0.815100000000     0.749900000000     0          
O119     O      0.500000000000     0.390800000000     0.241500000000     0          
C120     C      0.500000000000     0.315100000000     0.249900000000     0          
O121     O      0.000000000000     0.241500000000     0.890800000000     0          
C122     C      0.000000000000     0.249900000000     0.815100000000     0          
O123     O      0.000000000000     0.741500000000     0.390800000000     0          
C124     C      0.000000000000     0.749900000000     0.315100000000     0          
O125     O      0.500000000000     0.241500000000     0.390800000000     0          
C126     C      0.500000000000     0.249900000000     0.315100000000     0          
O127     O      0.500000000000     0.741500000000     0.890800000000     0          
C128     C      0.500000000000     0.749900000000     0.815100000000     0          
O129     O      0.000000000000     0.758500000000     0.890800000000     0          
C130     C      0.000000000000     0.750100000000     0.815100000000     0          
O131     O      0.000000000000     0.258500000000     0.390800000000     0          
C132     C      0.000000000000     0.250100000000     0.315100000000     0          
O133     O      0.500000000000     0.758500000000     0.390800000000     0          
C134     C      0.500000000000     0.750100000000     0.315100000000     0          
O135     O      0.500000000000     0.258500000000     0.890800000000     0          
C136     C      0.500000000000     0.250100000000     0.815100000000     0          
O137     O      0.000000000000     0.758500000000     0.109200000000     0          
C138     C      0.000000000000     0.750100000000     0.184900000000     0          
O139     O      0.000000000000     0.258500000000     0.609200000000     0          
C140     C      0.000000000000     0.250100000000     0.684900000000     0          
O141     O      0.500000000000     0.758500000000     0.609200000000     0          
C142     C      0.500000000000     0.750100000000     0.684900000000     0          
O143     O      0.500000000000     0.258500000000     0.109200000000     0          
C144     C      0.500000000000     0.250100000000     0.184900000000     0          
O145     O      0.000000000000     0.241500000000     0.109200000000     0          
C146     C      0.000000000000     0.249900000000     0.184900000000     0          
O147     O      0.000000000000     0.741500000000     0.609200000000     0          
C148     C      0.000000000000     0.749900000000     0.684900000000     0          
O149     O      0.500000000000     0.241500000000     0.609200000000     0          
C150     C      0.500000000000     0.249900000000     0.684900000000     0          
O151     O      0.500000000000     0.741500000000     0.109200000000     0          
C152     C      0.500000000000     0.749900000000     0.184900000000     0          
O153     O      0.241500000000     0.109200000000     0.000000000000     0          
C154     C      0.249900000000     0.184900000000     0.000000000000     0          
O155     O      0.241500000000     0.609200000000     0.500000000000     0          
C156     C      0.249900000000     0.684900000000     0.500000000000     0          
O157     O      0.741500000000     0.109200000000     0.500000000000     0          
C158     C      0.749900000000     0.184900000000     0.500000000000     0          
O159     O      0.741500000000     0.609200000000     0.000000000000     0          
C160     C      0.749900000000     0.684900000000     0.000000000000     0          
O161     O      0.758500000000     0.109200000000     0.000000000000     0          
C162     C      0.750100000000     0.184900000000     0.000000000000     0          
O163     O      0.758500000000     0.609200000000     0.500000000000     0          
C164     C      0.750100000000     0.684900000000     0.500000000000     0          
O165     O      0.258500000000     0.109200000000     0.500000000000     0          
C166     C      0.250100000000     0.184900000000     0.500000000000     0          
O167     O      0.258500000000     0.609200000000     0.000000000000     0          
C168     C      0.250100000000     0.684900000000     0.000000000000     0          
O169     O      0.758500000000     0.890800000000     0.000000000000     0          
C170     C      0.750100000000     0.815100000000     0.000000000000     0          
O171     O      0.758500000000     0.390800000000     0.500000000000     0          
C172     C      0.750100000000     0.315100000000     0.500000000000     0          
O173     O      0.258500000000     0.890800000000     0.500000000000     0          
C174     C      0.250100000000     0.815100000000     0.500000000000     0          
O175     O      0.258500000000     0.390800000000     0.000000000000     0          
C176     C      0.250100000000     0.315100000000     0.000000000000     0          
O177     O      0.241500000000     0.890800000000     0.000000000000     0          
C178     C      0.249900000000     0.815100000000     0.000000000000     0          
O179     O      0.241500000000     0.390800000000     0.500000000000     0          
C180     C      0.249900000000     0.315100000000     0.500000000000     0          
O181     O      0.741500000000     0.890800000000     0.500000000000     0          
C182     C      0.749900000000     0.815100000000     0.500000000000     0          
O183     O      0.741500000000     0.390800000000     0.000000000000     0          
C184     C      0.749900000000     0.315100000000     0.000000000000     0          
O185     O      0.109200000000     0.000000000000     0.758500000000     0          
C186     C      0.184900000000     0.000000000000     0.750100000000     0          
O187     O      0.109200000000     0.500000000000     0.258500000000     0          
C188     C      0.184900000000     0.500000000000     0.250100000000     0          
O189     O      0.609200000000     0.000000000000     0.258500000000     0          
C190     C      0.684900000000     0.000000000000     0.250100000000     0          
O191     O      0.609200000000     0.500000000000     0.758500000000     0          
C192     C      0.684900000000     0.500000000000     0.750100000000     0          
O193     O      0.109200000000     0.000000000000     0.241500000000     0          
C194     C      0.184900000000     0.000000000000     0.249900000000     0          
O195     O      0.109200000000     0.500000000000     0.741500000000     0          
C196     C      0.184900000000     0.500000000000     0.749900000000     0          
O197     O      0.609200000000     0.000000000000     0.741500000000     0          
C198     C      0.684900000000     0.000000000000     0.749900000000     0          
O199     O      0.609200000000     0.500000000000     0.241500000000     0          
C200     C      0.684900000000     0.500000000000     0.249900000000     0          
O201     O      0.890800000000     0.000000000000     0.241500000000     0          
C202     C      0.815100000000     0.000000000000     0.249900000000     0          
O203     O      0.890800000000     0.500000000000     0.741500000000     0          
C204     C      0.815100000000     0.500000000000     0.749900000000     0          
O205     O      0.390800000000     0.000000000000     0.741500000000     0          
C206     C      0.315100000000     0.000000000000     0.749900000000     0          
O207     O      0.390800000000     0.500000000000     0.241500000000     0          
C208     C      0.315100000000     0.500000000000     0.249900000000     0          
O209     O      0.890800000000     0.000000000000     0.758500000000     0          
C210     C      0.815100000000     0.000000000000     0.750100000000     0          
O211     O      0.890800000000     0.500000000000     0.258500000000     0          
C212     C      0.815100000000     0.500000000000     0.250100000000     0          
O213     O      0.390800000000     0.000000000000     0.258500000000     0          
C214     C      0.315100000000     0.000000000000     0.250100000000     0          
O215     O      0.390800000000     0.500000000000     0.758500000000     0          
C216     C      0.315100000000     0.500000000000     0.750100000000     0          
O217     O      0.084400000000     0.084400000000     0.084400000000     0          
O218     O      0.084400000000     0.584400000000     0.584400000000     0          
O219     O      0.584400000000     0.084400000000     0.584400000000     0          
O220     O      0.584400000000     0.584400000000     0.084400000000     0          
O222     O      0.915600000000     0.415600000000     0.584400000000     0          
O223     O      0.415600000000     0.915600000000     0.584400000000     0          
O224     O      0.415600000000     0.415600000000     0.084400000000     0          
O226     O      0.915600000000     0.584400000000     0.415600000000     0          
O227     O      0.415600000000     0.084400000000     0.415600000000     0          
O228     O      0.415600000000     0.584400000000     0.915600000000     0          
O230     O      0.084400000000     0.415600000000     0.415600000000     0          
O231     O      0.584400000000     0.915600000000     0.415600000000     0          
O232     O      0.584400000000     0.415600000000     0.915600000000     0          
O233     O      0.084400000000     0.084400000000     0.915600000000     0          
O234     O      0.084400000000     0.584400000000     0.415600000000     0          
O235     O      0.584400000000     0.084400000000     0.415600000000     0          
O236     O      0.584400000000     0.584400000000     0.915600000000     0          
O238     O      0.915600000000     0.415600000000     0.415600000000     0          
O239     O      0.415600000000     0.915600000000     0.415600000000     0          
O240     O      0.415600000000     0.415600000000     0.915600000000     0          
O241     O      0.084400000000     0.915600000000     0.084400000000     0          
O242     O      0.084400000000     0.415600000000     0.584400000000     0          
O243     O      0.584400000000     0.915600000000     0.584400000000     0          
O244     O      0.584400000000     0.415600000000     0.084400000000     0          
O245     O      0.915600000000     0.084400000000     0.084400000000     0          
O246     O      0.915600000000     0.584400000000     0.584400000000     0          
O247     O      0.415600000000     0.084400000000     0.584400000000     0          
O248     O      0.415600000000     0.584400000000     0.084400000000     0          
O221     O      0.915600000000     0.915600000000     0.084400000000     0          
O225     O      0.915600000000     0.084400000000     0.915600000000     0          
O229     O      0.084400000000     0.915600000000     0.915600000000     0          
O237     O      0.915600000000     0.915600000000     0.915600000000     0          


