data_TOVGAO

_audit_creation_method RASPA-1.0
_audit_creation_date 2020-11-2
_audit_author_name 'Rocio Bueno-Perez'

_cell_length_a    25.3468
_cell_length_b    25.3468
_cell_length_c    25.3468
_cell_angle_alpha 90
_cell_angle_beta  90
_cell_angle_gamma 90
_cell_volume      16284.3

_symmetry_cell_setting          triclinic
_symmetry_space_group_name_Hall 'P 1'
_symmetry_space_group_name_H-M  'P 1'
_symmetry_Int_Tables_number     1

_symmetry_equiv_pos_as_xyz 'x,y,z'

loop_
_atom_site_label
_atom_site_type_symbol
_atom_site_fract_x
_atom_site_fract_y
_atom_site_fract_z
_atom_site_charge
C4       C      0.511000000000     0.346990000000     0.281710000000     0          
H5       H      0.520030000000     0.389690000000     0.270830000000     0          
C6       C      0.511000000000     0.308220000000     0.242920000000     0          
H7       H      0.520030000000     0.319120000000     0.200230000000     0          
C8       C      0.470500000000     0.958000000000     0.110400000000     0          
C9       C      0.469700000000     0.973100000000     0.161600000000     0          
H10      H      0.469190000000     0.942100000000     0.194180000000     0          
C15      C      0.470500000000     0.042000000000     0.889600000000     0          
C16      C      0.469700000000     0.026900000000     0.838400000000     0          
H17      H      0.469190000000     0.057900000000     0.805820000000     0          
C18      C      0.489000000000     0.346990000000     0.718290000000     0          
C20      C      0.489000000000     0.308220000000     0.757080000000     0          
H26      H      0.479970000000     0.610310000000     0.729170000000     0          
H28      H      0.479970000000     0.680880000000     0.799770000000     0          
C32      C      0.281710000000     0.511000000000     0.346990000000     0          
H33      H      0.270830000000     0.520030000000     0.389690000000     0          
C34      C      0.242920000000     0.511000000000     0.308220000000     0          
H35      H      0.200230000000     0.520030000000     0.319120000000     0          
C36      C      0.110400000000     0.470500000000     0.958000000000     0          
C37      C      0.161600000000     0.469700000000     0.973100000000     0          
H38      H      0.194180000000     0.469190000000     0.942100000000     0          
C39      C      0.281710000000     0.489000000000     0.653010000000     0          
C41      C      0.242920000000     0.489000000000     0.691780000000     0          
C43      C      0.889600000000     0.470500000000     0.042000000000     0          
C44      C      0.838400000000     0.469700000000     0.026900000000     0          
H45      H      0.805820000000     0.469190000000     0.057900000000     0          
C46      C      0.718290000000     0.489000000000     0.346990000000     0          
H47      H      0.729170000000     0.479970000000     0.389690000000     0          
C48      C      0.757080000000     0.489000000000     0.308220000000     0          
H49      H      0.799770000000     0.479970000000     0.319120000000     0          
C60      C      0.346990000000     0.281710000000     0.511000000000     0          
H61      H      0.389690000000     0.270830000000     0.520030000000     0          
C62      C      0.308220000000     0.242920000000     0.511000000000     0          
H63      H      0.319120000000     0.200230000000     0.520030000000     0          
C64      C      0.958000000000     0.110400000000     0.470500000000     0          
C65      C      0.973100000000     0.161600000000     0.469700000000     0          
H66      H      0.942100000000     0.194180000000     0.469190000000     0          
C67      C      0.653010000000     0.281710000000     0.489000000000     0          
C69      C      0.691780000000     0.242920000000     0.489000000000     0          
C71      C      0.042000000000     0.889600000000     0.470500000000     0          
C72      C      0.026900000000     0.838400000000     0.469700000000     0          
H73      H      0.057900000000     0.805820000000     0.469190000000     0          
C81      C      0.653010000000     0.718290000000     0.511000000000     0          
H82      H      0.610310000000     0.729170000000     0.520030000000     0          
C83      C      0.691780000000     0.757080000000     0.511000000000     0          
H84      H      0.680880000000     0.799770000000     0.520030000000     0          
C88      C      0.346990000000     0.511000000000     0.718290000000     0          
H89      H      0.389690000000     0.520030000000     0.729170000000     0          
C90      C      0.308220000000     0.511000000000     0.757080000000     0          
H91      H      0.319120000000     0.520030000000     0.799770000000     0          
C92      C      0.958000000000     0.470500000000     0.889600000000     0          
C93      C      0.973100000000     0.469700000000     0.838400000000     0          
H94      H      0.942100000000     0.469190000000     0.805820000000     0          
H96      H      0.610310000000     0.520030000000     0.729170000000     0          
H98      H      0.680880000000     0.520030000000     0.799770000000     0          
C99      C      0.042000000000     0.470500000000     0.110400000000     0          
C100     C      0.026900000000     0.469700000000     0.161600000000     0          
H101     H      0.057900000000     0.469190000000     0.194180000000     0          
C102     C      0.346990000000     0.489000000000     0.281710000000     0          
C104     C      0.308220000000     0.489000000000     0.242920000000     0          
C109     C      0.653010000000     0.511000000000     0.281710000000     0          
C111     C      0.691780000000     0.511000000000     0.242920000000     0          
C116     C      0.511000000000     0.281710000000     0.653010000000     0          
H117     H      0.520030000000     0.270830000000     0.610310000000     0          
C118     C      0.511000000000     0.242920000000     0.691780000000     0          
H119     H      0.520030000000     0.200230000000     0.680880000000     0          
C120     C      0.470500000000     0.110400000000     0.042000000000     0          
C121     C      0.469700000000     0.161600000000     0.026900000000     0          
H122     H      0.469190000000     0.194180000000     0.057900000000     0          
C123     C      0.489000000000     0.281710000000     0.346990000000     0          
C125     C      0.489000000000     0.242920000000     0.308220000000     0          
C127     C      0.470500000000     0.889600000000     0.958000000000     0          
C128     C      0.469700000000     0.838400000000     0.973100000000     0          
H129     H      0.469190000000     0.805820000000     0.942100000000     0          
H138     H      0.479970000000     0.729170000000     0.389690000000     0          
H140     H      0.479970000000     0.799770000000     0.319120000000     0          
C141     C      0.110400000000     0.042000000000     0.470500000000     0          
C142     C      0.161600000000     0.026900000000     0.469700000000     0          
H143     H      0.194180000000     0.057900000000     0.469190000000     0          
C144     C      0.281710000000     0.346990000000     0.489000000000     0          
C146     C      0.242920000000     0.308220000000     0.489000000000     0          
H152     H      0.270830000000     0.610310000000     0.479970000000     0          
H154     H      0.200230000000     0.680880000000     0.479970000000     0          
C158     C      0.718290000000     0.346990000000     0.511000000000     0          
H159     H      0.729170000000     0.389690000000     0.520030000000     0          
C160     C      0.757080000000     0.308220000000     0.511000000000     0          
H161     H      0.799770000000     0.319120000000     0.520030000000     0          
C162     C      0.889600000000     0.958000000000     0.470500000000     0          
C163     C      0.838400000000     0.973100000000     0.469700000000     0          
H164     H      0.805820000000     0.942100000000     0.469190000000     0          
C165     C      0.718290000000     0.653010000000     0.489000000000     0          
C167     C      0.757080000000     0.691780000000     0.489000000000     0          
C169     C      0.470500000000     0.958000000000     0.889600000000     0          
C170     C      0.469700000000     0.973100000000     0.838400000000     0          
H171     H      0.469190000000     0.942100000000     0.805820000000     0          
C172     C      0.489000000000     0.653010000000     0.718290000000     0          
C174     C      0.489000000000     0.691780000000     0.757080000000     0          
H180     H      0.479970000000     0.389690000000     0.729170000000     0          
H182     H      0.479970000000     0.319120000000     0.799770000000     0          
C186     C      0.511000000000     0.653010000000     0.281710000000     0          
H187     H      0.520030000000     0.610310000000     0.270830000000     0          
C188     C      0.511000000000     0.691780000000     0.242920000000     0          
H189     H      0.520030000000     0.680880000000     0.200230000000     0          
C190     C      0.470500000000     0.042000000000     0.110400000000     0          
C191     C      0.469700000000     0.026900000000     0.161600000000     0          
H192     H      0.469090000000     0.049390000000     0.200550000000     0          
C197     C      0.889600000000     0.470500000000     0.958000000000     0          
C198     C      0.838400000000     0.469700000000     0.973100000000     0          
H199     H      0.805820000000     0.469190000000     0.942100000000     0          
C200     C      0.718290000000     0.489000000000     0.653010000000     0          
H201     H      0.729170000000     0.479970000000     0.610310000000     0          
C202     C      0.757080000000     0.489000000000     0.691780000000     0          
H203     H      0.799770000000     0.479970000000     0.680880000000     0          
H215     H      0.270830000000     0.479970000000     0.610310000000     0          
H217     H      0.200230000000     0.479970000000     0.680880000000     0          
C218     C      0.110400000000     0.470500000000     0.042000000000     0          
C219     C      0.161600000000     0.469700000000     0.026900000000     0          
H220     H      0.194180000000     0.469190000000     0.057900000000     0          
C225     C      0.958000000000     0.889600000000     0.470500000000     0          
C226     C      0.973100000000     0.838400000000     0.469700000000     0          
H227     H      0.942100000000     0.805820000000     0.469190000000     0          
C235     C      0.346990000000     0.718290000000     0.511000000000     0          
H236     H      0.389690000000     0.729170000000     0.520030000000     0          
C237     C      0.308220000000     0.757080000000     0.511000000000     0          
H238     H      0.319120000000     0.799770000000     0.520030000000     0          
H243     H      0.610310000000     0.270830000000     0.479970000000     0          
H245     H      0.680880000000     0.200230000000     0.479970000000     0          
C246     C      0.042000000000     0.110400000000     0.470500000000     0          
C247     C      0.026900000000     0.161600000000     0.469700000000     0          
H248     H      0.049390000000     0.200550000000     0.469090000000     0          
C253     C      0.958000000000     0.470500000000     0.110400000000     0          
C254     C      0.973100000000     0.469700000000     0.161600000000     0          
H255     H      0.950610000000     0.469090000000     0.200550000000     0          
H257     H      0.610310000000     0.520030000000     0.270830000000     0          
H259     H      0.680880000000     0.520030000000     0.200230000000     0          
H264     H      0.389690000000     0.479970000000     0.270830000000     0          
H266     H      0.319120000000     0.479970000000     0.200230000000     0          
C270     C      0.653010000000     0.511000000000     0.718290000000     0          
C272     C      0.691780000000     0.511000000000     0.757080000000     0          
C274     C      0.042000000000     0.470500000000     0.889600000000     0          
C275     C      0.026900000000     0.469700000000     0.838400000000     0          
H276     H      0.057900000000     0.469190000000     0.805820000000     0          
C281     C      0.470500000000     0.889600000000     0.042000000000     0          
C282     C      0.469700000000     0.838400000000     0.026900000000     0          
H283     H      0.469190000000     0.805820000000     0.057900000000     0          
C284     C      0.489000000000     0.718290000000     0.346990000000     0          
C286     C      0.489000000000     0.757080000000     0.308220000000     0          
C291     C      0.511000000000     0.718290000000     0.653010000000     0          
H292     H      0.520030000000     0.729170000000     0.610310000000     0          
C293     C      0.511000000000     0.757080000000     0.691780000000     0          
H294     H      0.520030000000     0.799770000000     0.680880000000     0          
H299     H      0.479970000000     0.270830000000     0.389690000000     0          
H301     H      0.479970000000     0.200230000000     0.319120000000     0          
C302     C      0.470500000000     0.110400000000     0.958000000000     0          
C303     C      0.469700000000     0.161600000000     0.973100000000     0          
H304     H      0.469190000000     0.194180000000     0.942100000000     0          
H313     H      0.729170000000     0.610310000000     0.479970000000     0          
H315     H      0.799770000000     0.680880000000     0.479970000000     0          
C316     C      0.889600000000     0.042000000000     0.470500000000     0          
C317     C      0.838400000000     0.026900000000     0.469700000000     0          
H318     H      0.805820000000     0.057900000000     0.469190000000     0          
C323     C      0.110400000000     0.958000000000     0.470500000000     0          
C324     C      0.161600000000     0.973100000000     0.469700000000     0          
H325     H      0.194180000000     0.942100000000     0.469190000000     0          
C326     C      0.281710000000     0.653010000000     0.489000000000     0          
C328     C      0.242920000000     0.691780000000     0.489000000000     0          
H334     H      0.270830000000     0.389690000000     0.479970000000     0          
H336     H      0.200230000000     0.319120000000     0.479970000000     0          
Zr337    Zr     0.500000000000     0.500000000000     0.402300000000     0          
Zr338    Zr     0.500000000000     0.500000000000     0.597700000000     0          
Zr339    Zr     0.402300000000     0.500000000000     0.500000000000     0          
Zr340    Zr     0.597700000000     0.500000000000     0.500000000000     0          
Zr341    Zr     0.500000000000     0.402300000000     0.500000000000     0          
Zr342    Zr     0.500000000000     0.597700000000     0.500000000000     0          
O343     O      0.500000000000     0.423090000000     0.359330000000     0          
O344     O      0.500000000000     0.576910000000     0.359330000000     0          
O345     O      0.500000000000     0.423090000000     0.640670000000     0          
O346     O      0.500000000000     0.576910000000     0.640670000000     0          
O347     O      0.359330000000     0.500000000000     0.423090000000     0          
O348     O      0.359330000000     0.500000000000     0.576910000000     0          
O349     O      0.640670000000     0.500000000000     0.423090000000     0          
O350     O      0.640670000000     0.500000000000     0.576910000000     0          
O351     O      0.423090000000     0.359330000000     0.500000000000     0          
O352     O      0.576910000000     0.359330000000     0.500000000000     0          
O353     O      0.423090000000     0.640670000000     0.500000000000     0          
O354     O      0.576910000000     0.640670000000     0.500000000000     0          
O355     O      0.423090000000     0.500000000000     0.640670000000     0          
O356     O      0.576910000000     0.500000000000     0.640670000000     0          
O357     O      0.423090000000     0.500000000000     0.359330000000     0          
O358     O      0.576910000000     0.500000000000     0.359330000000     0          
O359     O      0.500000000000     0.359330000000     0.576910000000     0          
O360     O      0.500000000000     0.359330000000     0.423090000000     0          
O361     O      0.500000000000     0.640670000000     0.576910000000     0          
O362     O      0.500000000000     0.640670000000     0.423090000000     0          
O363     O      0.359330000000     0.423090000000     0.500000000000     0          
O364     O      0.359330000000     0.576910000000     0.500000000000     0          
O365     O      0.640670000000     0.423090000000     0.500000000000     0          
O366     O      0.640670000000     0.576910000000     0.500000000000     0          
C367     C      0.500000000000     0.375400000000     0.375400000000     0          
C368     C      0.500000000000     0.256150000000     0.256150000000     0          
C369     C      0.500000000000     0.333770000000     0.333770000000     0          
C370     C      0.500000000000     0.213420000000     0.213420000000     0          
C371     C      0.500000000000     0.624600000000     0.375400000000     0          
C372     C      0.500000000000     0.743850000000     0.256150000000     0          
C373     C      0.500000000000     0.666230000000     0.333770000000     0          
C374     C      0.500000000000     0.786580000000     0.213420000000     0          
C375     C      0.500000000000     0.375400000000     0.624600000000     0          
C376     C      0.500000000000     0.256150000000     0.743850000000     0          
C377     C      0.500000000000     0.333770000000     0.666230000000     0          
C378     C      0.500000000000     0.213420000000     0.786580000000     0          
C379     C      0.500000000000     0.624600000000     0.624600000000     0          
C380     C      0.500000000000     0.743850000000     0.743850000000     0          
C381     C      0.500000000000     0.666230000000     0.666230000000     0          
C382     C      0.500000000000     0.786580000000     0.786580000000     0          
C383     C      0.375400000000     0.500000000000     0.375400000000     0          
C384     C      0.256150000000     0.500000000000     0.256150000000     0          
C385     C      0.333770000000     0.500000000000     0.333770000000     0          
C386     C      0.213420000000     0.500000000000     0.213420000000     0          
C387     C      0.375400000000     0.500000000000     0.624600000000     0          
C388     C      0.256150000000     0.500000000000     0.743850000000     0          
C389     C      0.333770000000     0.500000000000     0.666230000000     0          
C390     C      0.213420000000     0.500000000000     0.786580000000     0          
C391     C      0.624600000000     0.500000000000     0.375400000000     0          
C392     C      0.743850000000     0.500000000000     0.256150000000     0          
C393     C      0.666230000000     0.500000000000     0.333770000000     0          
C394     C      0.786580000000     0.500000000000     0.213420000000     0          
C395     C      0.624600000000     0.500000000000     0.624600000000     0          
C396     C      0.743850000000     0.500000000000     0.743850000000     0          
C397     C      0.666230000000     0.500000000000     0.666230000000     0          
C398     C      0.786580000000     0.500000000000     0.786580000000     0          
C399     C      0.375400000000     0.375400000000     0.500000000000     0          
C400     C      0.256150000000     0.256150000000     0.500000000000     0          
C401     C      0.333770000000     0.333770000000     0.500000000000     0          
C402     C      0.213420000000     0.213420000000     0.500000000000     0          
C403     C      0.624600000000     0.375400000000     0.500000000000     0          
C404     C      0.743850000000     0.256150000000     0.500000000000     0          
C405     C      0.666230000000     0.333770000000     0.500000000000     0          
C406     C      0.786580000000     0.213420000000     0.500000000000     0          
C407     C      0.375400000000     0.624600000000     0.500000000000     0          
C408     C      0.256150000000     0.743850000000     0.500000000000     0          
C409     C      0.333770000000     0.666230000000     0.500000000000     0          
C410     C      0.213420000000     0.786580000000     0.500000000000     0          
C411     C      0.624600000000     0.624600000000     0.500000000000     0          
C412     C      0.743850000000     0.743850000000     0.500000000000     0          
C413     C      0.666230000000     0.666230000000     0.500000000000     0          
C414     C      0.786580000000     0.786580000000     0.500000000000     0          
O415     O      0.548300000000     0.548300000000     0.451700000000     0          
O416     O      0.451700000000     0.451700000000     0.451700000000     0          
O417     O      0.451700000000     0.548300000000     0.548300000000     0          
O418     O      0.548300000000     0.451700000000     0.548300000000     0          
O419     O      0.548300000000     0.548300000000     0.548300000000     0          
O420     O      0.451700000000     0.451700000000     0.548300000000     0          
O421     O      0.548300000000     0.451700000000     0.451700000000     0          
O422     O      0.451700000000     0.548300000000     0.451700000000     0          
Ni424    Ni     0.471800000000     0.000000000000     0.000000000000     0          
Ni426    Ni     0.000000000000     0.471800000000     0.000000000000     0          
Ni428    Ni     0.000000000000     0.000000000000     0.471800000000     0          
C439     C      0.479900000000     0.862870000000     0.137130000000     0          
C440     C      0.468900000000     0.904600000000     0.095400000000     0          
C441     C      0.448300000000     0.799510000000     0.200490000000     0          
H442     H      0.414110000000     0.778850000000     0.221150000000     0          
C443     C      0.438200000000     0.837600000000     0.162400000000     0          
H444     H      0.395780000000     0.848170000000     0.151830000000     0          
C445     C      0.531600000000     0.849900000000     0.150100000000     0          
H446     H      0.565820000000     0.870540000000     0.129460000000     0          
C447     C      0.541640000000     0.811800000000     0.188200000000     0          
H448     H      0.584050000000     0.801210000000     0.198790000000     0          
C449     C      0.479900000000     0.137130000000     0.862870000000     0          
C450     C      0.468900000000     0.095400000000     0.904600000000     0          
C451     C      0.448300000000     0.200490000000     0.799510000000     0          
H452     H      0.414110000000     0.221150000000     0.778850000000     0          
C453     C      0.438200000000     0.162400000000     0.837600000000     0          
H454     H      0.395780000000     0.151830000000     0.848170000000     0          
C455     C      0.531600000000     0.150100000000     0.849900000000     0          
H456     H      0.565820000000     0.129460000000     0.870540000000     0          
C457     C      0.541640000000     0.188200000000     0.811800000000     0          
H458     H      0.584050000000     0.198790000000     0.801210000000     0          
C479     C      0.137130000000     0.479900000000     0.862870000000     0          
C480     C      0.095400000000     0.468900000000     0.904600000000     0          
C481     C      0.200490000000     0.448300000000     0.799510000000     0          
H482     H      0.221150000000     0.414110000000     0.778850000000     0          
C483     C      0.162400000000     0.438200000000     0.837600000000     0          
H484     H      0.151830000000     0.395780000000     0.848170000000     0          
C485     C      0.150100000000     0.531600000000     0.849900000000     0          
H486     H      0.129460000000     0.565820000000     0.870540000000     0          
C487     C      0.188200000000     0.541640000000     0.811800000000     0          
H488     H      0.198790000000     0.584050000000     0.801210000000     0          
C489     C      0.862870000000     0.479900000000     0.137130000000     0          
C490     C      0.904600000000     0.468900000000     0.095400000000     0          
C491     C      0.799510000000     0.448300000000     0.200490000000     0          
H492     H      0.778850000000     0.414110000000     0.221150000000     0          
C493     C      0.837600000000     0.438200000000     0.162400000000     0          
H494     H      0.848170000000     0.395780000000     0.151830000000     0          
C495     C      0.849900000000     0.531600000000     0.150100000000     0          
H496     H      0.870540000000     0.565820000000     0.129460000000     0          
C497     C      0.811800000000     0.541640000000     0.188200000000     0          
H498     H      0.801210000000     0.584050000000     0.198790000000     0          
C519     C      0.862870000000     0.137130000000     0.479900000000     0          
C520     C      0.904600000000     0.095400000000     0.468900000000     0          
C521     C      0.799510000000     0.200490000000     0.448300000000     0          
H522     H      0.778850000000     0.221150000000     0.414110000000     0          
C523     C      0.837600000000     0.162400000000     0.438200000000     0          
H524     H      0.848170000000     0.151830000000     0.395780000000     0          
C525     C      0.849900000000     0.150100000000     0.531600000000     0          
H526     H      0.870540000000     0.129460000000     0.565820000000     0          
C527     C      0.811800000000     0.188200000000     0.541640000000     0          
H528     H      0.801210000000     0.198790000000     0.584050000000     0          
C529     C      0.137130000000     0.862870000000     0.479900000000     0          
C530     C      0.095400000000     0.904600000000     0.468900000000     0          
C531     C      0.200490000000     0.799510000000     0.448300000000     0          
H532     H      0.221150000000     0.778850000000     0.414110000000     0          
C533     C      0.162400000000     0.837600000000     0.438200000000     0          
H534     H      0.151830000000     0.848170000000     0.395780000000     0          
C535     C      0.150100000000     0.849900000000     0.531600000000     0          
H536     H      0.129460000000     0.870540000000     0.565820000000     0          
C537     C      0.188200000000     0.811800000000     0.541640000000     0          
H538     H      0.198790000000     0.801210000000     0.584050000000     0          
C559     C      0.862870000000     0.479900000000     0.862870000000     0          
C560     C      0.904600000000     0.468900000000     0.904600000000     0          
C561     C      0.799510000000     0.448300000000     0.799510000000     0          
H562     H      0.778850000000     0.414110000000     0.778850000000     0          
C563     C      0.837600000000     0.438200000000     0.837600000000     0          
H564     H      0.848170000000     0.395780000000     0.848170000000     0          
C565     C      0.849900000000     0.531600000000     0.849900000000     0          
H566     H      0.870540000000     0.565820000000     0.870540000000     0          
C567     C      0.811800000000     0.541640000000     0.811800000000     0          
H568     H      0.801210000000     0.584050000000     0.801210000000     0          
C569     C      0.137130000000     0.479900000000     0.137130000000     0          
C570     C      0.095400000000     0.468900000000     0.095400000000     0          
C571     C      0.200490000000     0.448300000000     0.200490000000     0          
H572     H      0.221150000000     0.414110000000     0.221150000000     0          
C573     C      0.162400000000     0.438200000000     0.162400000000     0          
H574     H      0.151830000000     0.395780000000     0.151830000000     0          
C575     C      0.150100000000     0.531600000000     0.150100000000     0          
H576     H      0.129460000000     0.565820000000     0.129460000000     0          
C577     C      0.188200000000     0.541640000000     0.188200000000     0          
H578     H      0.198790000000     0.584050000000     0.198790000000     0          
C599     C      0.479900000000     0.137130000000     0.137130000000     0          
C600     C      0.468900000000     0.095400000000     0.095400000000     0          
C601     C      0.448300000000     0.200490000000     0.200490000000     0          
H602     H      0.414110000000     0.221150000000     0.221150000000     0          
C603     C      0.438200000000     0.162400000000     0.162400000000     0          
H604     H      0.395780000000     0.151830000000     0.151830000000     0          
C605     C      0.531600000000     0.150100000000     0.150100000000     0          
H606     H      0.565820000000     0.129460000000     0.129460000000     0          
C607     C      0.541640000000     0.188200000000     0.188200000000     0          
H608     H      0.584050000000     0.198790000000     0.198790000000     0          
C609     C      0.479900000000     0.862870000000     0.862870000000     0          
C610     C      0.468900000000     0.904600000000     0.904600000000     0          
C611     C      0.448300000000     0.799510000000     0.799510000000     0          
H612     H      0.414110000000     0.778850000000     0.778850000000     0          
C613     C      0.438200000000     0.837600000000     0.837600000000     0          
H614     H      0.395780000000     0.848170000000     0.848170000000     0          
C615     C      0.531600000000     0.849900000000     0.849900000000     0          
H616     H      0.565820000000     0.870540000000     0.870540000000     0          
C617     C      0.541640000000     0.811800000000     0.811800000000     0          
H618     H      0.584050000000     0.801210000000     0.801210000000     0          
C629     C      0.137130000000     0.137130000000     0.479900000000     0          
C630     C      0.095400000000     0.095400000000     0.468900000000     0          
C631     C      0.200490000000     0.200490000000     0.448300000000     0          
H632     H      0.221150000000     0.221150000000     0.414110000000     0          
C633     C      0.162400000000     0.162400000000     0.438200000000     0          
H634     H      0.151830000000     0.151830000000     0.395780000000     0          
C635     C      0.150100000000     0.150100000000     0.531600000000     0          
H636     H      0.129460000000     0.129460000000     0.565820000000     0          
C637     C      0.188200000000     0.188200000000     0.541640000000     0          
H638     H      0.198790000000     0.198790000000     0.584050000000     0          
C659     C      0.862870000000     0.862870000000     0.479900000000     0          
C660     C      0.904600000000     0.904600000000     0.468900000000     0          
C661     C      0.799510000000     0.799510000000     0.448300000000     0          
H662     H      0.778850000000     0.778850000000     0.414110000000     0          
C663     C      0.837600000000     0.837600000000     0.438200000000     0          
H664     H      0.848170000000     0.848170000000     0.395780000000     0          
C665     C      0.849900000000     0.849900000000     0.531600000000     0          
H666     H      0.870540000000     0.870540000000     0.565820000000     0          
C667     C      0.811800000000     0.811800000000     0.541640000000     0          
H668     H      0.801210000000     0.801210000000     0.584050000000     0          
N670     N      0.472900000000     0.000000000000     0.076000000000     0          
N671     N      0.472900000000     0.000000000000     0.924000000000     0          
N674     N      0.076000000000     0.472900000000     0.000000000000     0          
N675     N      0.924000000000     0.472900000000     0.000000000000     0          
N678     N      0.000000000000     0.076000000000     0.472900000000     0          
N679     N      0.000000000000     0.924000000000     0.472900000000     0          
N682     N      0.000000000000     0.472900000000     0.924000000000     0          
N683     N      0.000000000000     0.472900000000     0.076000000000     0          
N686     N      0.472900000000     0.076000000000     0.000000000000     0          
N687     N      0.472900000000     0.924000000000     0.000000000000     0          
N689     N      0.076000000000     0.000000000000     0.472900000000     0          
N692     N      0.924000000000     0.000000000000     0.472900000000     0          


