data_TUCYUL

_audit_creation_method RASPA-1.0
_audit_creation_date 2020-1-15
_audit_author_name 'Rocio Bueno-Perez'

_cell_length_a    16.465
_cell_length_b    11.149
_cell_length_c    8.939
_cell_angle_alpha 90
_cell_angle_beta  107.93
_cell_angle_gamma 90
_cell_volume      1561.22

_symmetry_cell_setting          monoclinic
_symmetry_space_group_name_Hall 'P 1'
_symmetry_space_group_name_H-M  'P 1'
_symmetry_Int_Tables_number     1

_symmetry_equiv_pos_as_xyz 'x,y,z'

loop_
_atom_site_label
_atom_site_type_symbol
_atom_site_fract_x
_atom_site_fract_y
_atom_site_fract_z
_atom_site_charge
C1       C      0.077800000000     0.865600000000     0.094100000000     0          
C2       C      0.146600000000     0.840300000000     0.249000000000     0          
C3       C      0.048800000000     0.495400000000     0.035700000000     0          
C4       C      0.954000000000     0.519100000000     0.951700000000     0          
C5       C      0.918800000000     0.852700000000     0.425800000000     0          
C6       C      0.851400000000     0.834300000000     0.264000000000     0          
O1       O      0.090800000000     0.935000000000     0.997400000000     0          
O2       O      0.007900000000     0.803700000000     0.078500000000     0          
O3       O      0.217200000000     0.890000000000     0.287200000000     0          
O4       O      0.122900000000     0.759200000000     0.335600000000     0          
O5       O      0.079900000000     0.550000000000     0.161600000000     0          
O6       O      0.083500000000     0.421900000000     0.971700000000     0          
O7       O      0.918000000000     0.589200000000     0.022200000000     0          
O8       O      0.921400000000     0.462300000000     0.824200000000     0          
O9       O      0.986300000000     0.786700000000     0.442000000000     0          
O10      O      0.908600000000     0.918400000000     0.524900000000     0          
O11      O      0.872200000000     0.758700000000     0.178000000000     0          
O12      O      0.786600000000     0.892200000000     0.229500000000     0          
Zr1      Zr     0.000000000000     0.677820000000     0.250000000000     0          
O6A      O      0.083500000000     0.578100000000     0.471700000000     0          
O8A      O      0.921400000000     0.537700000000     0.324200000000     0          
Zr1A     Zr     0.000000000000     0.322180000000     0.750000000000     0          
C1       C      0.077800000000     0.134400000000     0.594100000000     0          
C2       C      0.146600000000     0.159700000000     0.749000000000     0          
C3       C      0.048800000000     0.504600000000     0.535700000000     0          
C4       C      0.954000000000     0.480900000000     0.451700000000     0          
C5       C      0.918800000000     0.147300000000     0.925800000000     0          
C6       C      0.851400000000     0.165700000000     0.764000000000     0          
O1       O      0.090800000000     0.065000000000     0.497400000000     0          
O2       O      0.007900000000     0.196300000000     0.578500000000     0          
O3       O      0.217200000000     0.110000000000     0.787200000000     0          
O4       O      0.122900000000     0.240800000000     0.835600000000     0          
O5       O      0.079900000000     0.450000000000     0.661600000000     0          
O7       O      0.918000000000     0.410800000000     0.522200000000     0          
O9       O      0.986300000000     0.213300000000     0.942000000000     0          
O10      O      0.908600000000     0.081600000000     0.024900000000     0          
O11      O      0.872200000000     0.241300000000     0.678000000000     0          
O12      O      0.786600000000     0.107800000000     0.729500000000     0          
C1       C      0.577800000000     0.365600000000     0.094100000000     0          
C2       C      0.646600000000     0.340300000000     0.249000000000     0          
C3       C      0.548800000000     0.995400000000     0.035700000000     0          
C4       C      0.454000000000     0.019100000000     0.951700000000     0          
C5       C      0.418800000000     0.352700000000     0.425800000000     0          
C6       C      0.351400000000     0.334300000000     0.264000000000     0          
O1       O      0.590800000000     0.435000000000     0.997400000000     0          
O2       O      0.507900000000     0.303700000000     0.078500000000     0          
O3       O      0.717200000000     0.390000000000     0.287200000000     0          
O4       O      0.622900000000     0.259200000000     0.335600000000     0          
O5       O      0.579900000000     0.050000000000     0.161600000000     0          
O6       O      0.583500000000     0.921900000000     0.971700000000     0          
O7       O      0.418000000000     0.089200000000     0.022200000000     0          
O8       O      0.421400000000     0.962300000000     0.824200000000     0          
O9       O      0.486300000000     0.286700000000     0.442000000000     0          
O10      O      0.408600000000     0.418400000000     0.524900000000     0          
O11      O      0.372200000000     0.258700000000     0.178000000000     0          
O12      O      0.286600000000     0.392200000000     0.229500000000     0          
Zr1      Zr     0.500000000000     0.177820000000     0.250000000000     0          
O6A      O      0.583500000000     0.078100000000     0.471700000000     0          
O8A      O      0.421400000000     0.037700000000     0.324200000000     0          
Zr1A     Zr     0.500000000000     0.822180000000     0.750000000000     0          
C1       C      0.577800000000     0.634400000000     0.594100000000     0          
C2       C      0.646600000000     0.659700000000     0.749000000000     0          
C3       C      0.548800000000     0.004600000000     0.535700000000     0          
C4       C      0.454000000000     0.980900000000     0.451700000000     0          
C5       C      0.418800000000     0.647300000000     0.925800000000     0          
C6       C      0.351400000000     0.665700000000     0.764000000000     0          
O1       O      0.590800000000     0.565000000000     0.497400000000     0          
O2       O      0.507900000000     0.696300000000     0.578500000000     0          
O3       O      0.717200000000     0.610000000000     0.787200000000     0          
O4       O      0.622900000000     0.740800000000     0.835600000000     0          
O5       O      0.579900000000     0.950000000000     0.661600000000     0          
O7       O      0.418000000000     0.910800000000     0.522200000000     0          
O9       O      0.486300000000     0.713300000000     0.942000000000     0          
O10      O      0.408600000000     0.581600000000     0.024900000000     0          
O11      O      0.372200000000     0.741300000000     0.678000000000     0          
O12      O      0.286600000000     0.607800000000     0.729500000000     0          


