data_UHOVEU

_audit_creation_method RASPA-1.0
_audit_creation_date 2020-11-2
_audit_author_name 'Rocio Bueno-Perez'

_cell_length_a    25.4213
_cell_length_b    25.4213
_cell_length_c    25.4213
_cell_angle_alpha 90
_cell_angle_beta  90
_cell_angle_gamma 90
_cell_volume      16428.3

_symmetry_cell_setting          triclinic
_symmetry_space_group_name_Hall 'P 1'
_symmetry_space_group_name_H-M  'P 1'
_symmetry_Int_Tables_number     1

_symmetry_equiv_pos_as_xyz 'x,y,z'

loop_
_atom_site_label
_atom_site_type_symbol
_atom_site_fract_x
_atom_site_fract_y
_atom_site_fract_z
_atom_site_charge
C1       C      0.786400000000     0.177600000000     0.537700000000     0          
H2       H      0.751330000000     0.178480000000     0.565630000000     0          
C3       C      0.826000000000     0.139900000000     0.544400000000     0          
H4       H      0.827220000000     0.115050000000     0.581710000000     0          
C9       C      0.213600000000     0.177600000000     0.462300000000     0          
H10      H      0.248670000000     0.178480000000     0.434370000000     0          
C11      C      0.174000000000     0.139900000000     0.455600000000     0          
H12      H      0.172780000000     0.115050000000     0.418290000000     0          
C17      C      0.537700000000     0.786400000000     0.177600000000     0          
H18      H      0.565630000000     0.751330000000     0.178480000000     0          
C19      C      0.544400000000     0.826000000000     0.139900000000     0          
H20      H      0.581710000000     0.827220000000     0.115050000000     0          
C25      C      0.462300000000     0.213600000000     0.177600000000     0          
H26      H      0.434370000000     0.248670000000     0.178480000000     0          
C27      C      0.455600000000     0.174000000000     0.139900000000     0          
H28      H      0.418290000000     0.172780000000     0.115050000000     0          
C33      C      0.177600000000     0.537700000000     0.786400000000     0          
H34      H      0.178480000000     0.565630000000     0.751330000000     0          
C35      C      0.139900000000     0.544400000000     0.826000000000     0          
H36      H      0.115050000000     0.581710000000     0.827220000000     0          
C45      C      0.822400000000     0.462300000000     0.786400000000     0          
H46      H      0.821520000000     0.434370000000     0.751330000000     0          
C47      C      0.860100000000     0.455600000000     0.826000000000     0          
C53      C      0.822400000000     0.213600000000     0.462300000000     0          
H54      H      0.821520000000     0.248670000000     0.434370000000     0          
C55      C      0.860100000000     0.174000000000     0.455600000000     0          
H56      H      0.884950000000     0.172780000000     0.418290000000     0          
C57      C      0.177600000000     0.213600000000     0.537700000000     0          
H58      H      0.178480000000     0.248670000000     0.565630000000     0          
C59      C      0.139900000000     0.174000000000     0.544400000000     0          
H60      H      0.115050000000     0.172780000000     0.581710000000     0          
C65      C      0.786400000000     0.537700000000     0.822400000000     0          
H66      H      0.751330000000     0.565630000000     0.821520000000     0          
C67      C      0.826000000000     0.544400000000     0.860100000000     0          
H68      H      0.827220000000     0.581710000000     0.884950000000     0          
C73      C      0.213600000000     0.462300000000     0.822400000000     0          
H74      H      0.248670000000     0.434370000000     0.821520000000     0          
C75      C      0.174000000000     0.455600000000     0.860100000000     0          
H76      H      0.172780000000     0.418290000000     0.884950000000     0          
C81      C      0.537700000000     0.177600000000     0.213600000000     0          
H82      H      0.565630000000     0.178480000000     0.248670000000     0          
C83      C      0.544400000000     0.139900000000     0.174000000000     0          
H84      H      0.581710000000     0.115050000000     0.172780000000     0          
C93      C      0.462300000000     0.822400000000     0.213600000000     0          
H94      H      0.434370000000     0.821520000000     0.248670000000     0          
C95      C      0.455600000000     0.860100000000     0.174000000000     0          
H96      H      0.418290000000     0.884950000000     0.172780000000     0          
C97      C      0.213600000000     0.822400000000     0.462300000000     0          
H98      H      0.248670000000     0.821520000000     0.434370000000     0          
C99      C      0.174000000000     0.860100000000     0.455600000000     0          
H100     H      0.172780000000     0.884950000000     0.418290000000     0          
C105     C      0.786400000000     0.822400000000     0.537700000000     0          
H106     H      0.751330000000     0.821520000000     0.565630000000     0          
C107     C      0.826000000000     0.860100000000     0.544400000000     0          
H108     H      0.827220000000     0.884950000000     0.581710000000     0          
C113     C      0.462300000000     0.213600000000     0.822400000000     0          
H114     H      0.434370000000     0.248670000000     0.821520000000     0          
C115     C      0.455600000000     0.174000000000     0.860100000000     0          
H116     H      0.418290000000     0.172780000000     0.884950000000     0          
C121     C      0.537700000000     0.786400000000     0.822400000000     0          
H122     H      0.565630000000     0.751330000000     0.821520000000     0          
C123     C      0.544400000000     0.826000000000     0.860100000000     0          
H124     H      0.581710000000     0.827220000000     0.884950000000     0          
C129     C      0.822400000000     0.462300000000     0.213600000000     0          
H130     H      0.821520000000     0.434370000000     0.248670000000     0          
C131     C      0.860100000000     0.455600000000     0.174000000000     0          
H132     H      0.884950000000     0.418290000000     0.172780000000     0          
C141     C      0.177600000000     0.537700000000     0.213600000000     0          
H142     H      0.178480000000     0.565630000000     0.248670000000     0          
C143     C      0.139900000000     0.544400000000     0.174000000000     0          
H144     H      0.115050000000     0.581710000000     0.172780000000     0          
C149     C      0.177600000000     0.786400000000     0.537700000000     0          
H150     H      0.178480000000     0.751330000000     0.565630000000     0          
C151     C      0.139900000000     0.826000000000     0.544400000000     0          
H152     H      0.115050000000     0.827220000000     0.581710000000     0          
C153     C      0.822400000000     0.786400000000     0.462300000000     0          
H154     H      0.821520000000     0.751330000000     0.434370000000     0          
C155     C      0.860100000000     0.826000000000     0.455600000000     0          
H156     H      0.884950000000     0.827220000000     0.418290000000     0          
C161     C      0.213600000000     0.462300000000     0.177600000000     0          
H162     H      0.248670000000     0.434370000000     0.178480000000     0          
C163     C      0.174000000000     0.455600000000     0.139900000000     0          
H164     H      0.172780000000     0.418290000000     0.115050000000     0          
C169     C      0.786400000000     0.537700000000     0.177600000000     0          
H170     H      0.751330000000     0.565630000000     0.178480000000     0          
C171     C      0.826000000000     0.544400000000     0.139900000000     0          
H172     H      0.827220000000     0.581710000000     0.115050000000     0          
C177     C      0.462300000000     0.822400000000     0.786400000000     0          
H178     H      0.434370000000     0.821520000000     0.751330000000     0          
C179     C      0.455600000000     0.860100000000     0.826000000000     0          
C189     C      0.537700000000     0.177600000000     0.786400000000     0          
H190     H      0.565630000000     0.178480000000     0.751330000000     0          
C191     C      0.544400000000     0.139900000000     0.826000000000     0          
H192     H      0.581710000000     0.115050000000     0.827220000000     0          
Zr193    Zr     0.500000000000     0.402550000000     0.500000000000     0          
Zr194    Zr     0.500000000000     0.597450000000     0.500000000000     0          
Zr195    Zr     0.500000000000     0.500000000000     0.402550000000     0          
Zr196    Zr     0.500000000000     0.500000000000     0.597450000000     0          
Zr197    Zr     0.402550000000     0.500000000000     0.500000000000     0          
Zr198    Zr     0.597450000000     0.500000000000     0.500000000000     0          
Cu199    Cu     0.000000000000     0.000000000000     0.500000000000     0          
Cu200    Cu     0.500000000000     0.000000000000     0.000000000000     0          
Cu201    Cu     0.000000000000     0.500000000000     0.000000000000     0          
O202     O      0.450640000000     0.450640000000     0.450640000000     0          
O203     O      0.549360000000     0.549360000000     0.450640000000     0          
O204     O      0.549360000000     0.450640000000     0.549360000000     0          
O205     O      0.450640000000     0.549360000000     0.549360000000     0          
O206     O      0.450640000000     0.450640000000     0.549360000000     0          
O207     O      0.549360000000     0.549360000000     0.549360000000     0          
O208     O      0.450640000000     0.549360000000     0.450640000000     0          
O209     O      0.549360000000     0.450640000000     0.450640000000     0          
O210     O      0.576800000000     0.359490000000     0.500000000000     0          
C211     C      0.653700000000     0.283300000000     0.500000000000     0          
H212     H      0.610320000000     0.271920000000     0.500000000000     0          
C213     C      0.691800000000     0.244800000000     0.500000000000     0          
H214     H      0.679970000000     0.201540000000     0.500000000000     0          
C215     C      0.890200000000     0.042700000000     0.500000000000     0          
C216     C      0.835700000000     0.026300000000     0.500000000000     0          
H217     H      0.803040000000     0.057030000000     0.500000000000     0          
O218     O      0.423200000000     0.640510000000     0.500000000000     0          
C219     C      0.346300000000     0.716700000000     0.500000000000     0          
H220     H      0.389680000000     0.728080000000     0.500000000000     0          
C221     C      0.308200000000     0.755200000000     0.500000000000     0          
H222     H      0.320030000000     0.798460000000     0.500000000000     0          
C223     C      0.109800000000     0.957300000000     0.500000000000     0          
C224     C      0.164300000000     0.973700000000     0.500000000000     0          
H225     H      0.196960000000     0.942970000000     0.500000000000     0          
O226     O      0.423200000000     0.359490000000     0.500000000000     0          
C227     C      0.346300000000     0.283300000000     0.500000000000     0          
H228     H      0.389680000000     0.271920000000     0.500000000000     0          
C229     C      0.308200000000     0.244800000000     0.500000000000     0          
H230     H      0.320030000000     0.201540000000     0.500000000000     0          
C231     C      0.109800000000     0.042700000000     0.500000000000     0          
C232     C      0.164300000000     0.026300000000     0.500000000000     0          
H233     H      0.196960000000     0.057030000000     0.500000000000     0          
O234     O      0.576800000000     0.640510000000     0.500000000000     0          
C235     C      0.653700000000     0.716700000000     0.500000000000     0          
H236     H      0.610320000000     0.728080000000     0.500000000000     0          
C237     C      0.691800000000     0.755200000000     0.500000000000     0          
H238     H      0.679970000000     0.798460000000     0.500000000000     0          
C239     C      0.890200000000     0.957300000000     0.500000000000     0          
C240     C      0.835700000000     0.973700000000     0.500000000000     0          
H241     H      0.803040000000     0.942970000000     0.500000000000     0          
O242     O      0.500000000000     0.576800000000     0.359490000000     0          
C243     C      0.500000000000     0.653700000000     0.283300000000     0          
H244     H      0.500000000000     0.610320000000     0.271920000000     0          
C245     C      0.500000000000     0.691800000000     0.244800000000     0          
H246     H      0.500000000000     0.679970000000     0.201540000000     0          
C247     C      0.500000000000     0.890200000000     0.042700000000     0          
C248     C      0.500000000000     0.835700000000     0.026300000000     0          
H249     H      0.500000000000     0.803040000000     0.057030000000     0          
O250     O      0.500000000000     0.423200000000     0.640510000000     0          
C251     C      0.500000000000     0.346300000000     0.716700000000     0          
H252     H      0.500000000000     0.389680000000     0.728080000000     0          
C253     C      0.500000000000     0.308200000000     0.755200000000     0          
H254     H      0.500000000000     0.320030000000     0.798460000000     0          
C255     C      0.500000000000     0.109800000000     0.957300000000     0          
C256     C      0.500000000000     0.164300000000     0.973700000000     0          
H257     H      0.500000000000     0.196960000000     0.942970000000     0          
O258     O      0.500000000000     0.423200000000     0.359490000000     0          
C259     C      0.500000000000     0.346300000000     0.283300000000     0          
H260     H      0.500000000000     0.389680000000     0.271920000000     0          
C261     C      0.500000000000     0.308200000000     0.244800000000     0          
H262     H      0.500000000000     0.320030000000     0.201540000000     0          
C263     C      0.500000000000     0.109800000000     0.042700000000     0          
C264     C      0.500000000000     0.164300000000     0.026300000000     0          
H265     H      0.500000000000     0.196960000000     0.057030000000     0          
O266     O      0.500000000000     0.576800000000     0.640510000000     0          
C267     C      0.500000000000     0.653700000000     0.716700000000     0          
H268     H      0.500000000000     0.610320000000     0.728080000000     0          
C269     C      0.500000000000     0.691800000000     0.755200000000     0          
H270     H      0.500000000000     0.679970000000     0.798460000000     0          
C271     C      0.500000000000     0.890200000000     0.957300000000     0          
C272     C      0.500000000000     0.835700000000     0.973700000000     0          
H273     H      0.500000000000     0.803040000000     0.942970000000     0          
O274     O      0.359490000000     0.500000000000     0.576800000000     0          
C275     C      0.283300000000     0.500000000000     0.653700000000     0          
H276     H      0.271920000000     0.500000000000     0.610320000000     0          
C277     C      0.244800000000     0.500000000000     0.691800000000     0          
H278     H      0.201540000000     0.500000000000     0.679970000000     0          
C279     C      0.042700000000     0.500000000000     0.890200000000     0          
C280     C      0.026300000000     0.500000000000     0.835700000000     0          
H281     H      0.057030000000     0.500000000000     0.803040000000     0          
O282     O      0.640510000000     0.500000000000     0.423200000000     0          
C283     C      0.716700000000     0.500000000000     0.346300000000     0          
H284     H      0.728080000000     0.500000000000     0.389680000000     0          
C285     C      0.755200000000     0.500000000000     0.308200000000     0          
H286     H      0.798460000000     0.500000000000     0.320030000000     0          
C287     C      0.957300000000     0.500000000000     0.109800000000     0          
C288     C      0.973700000000     0.500000000000     0.164300000000     0          
H289     H      0.942970000000     0.500000000000     0.196960000000     0          
O290     O      0.359490000000     0.500000000000     0.423200000000     0          
C291     C      0.283300000000     0.500000000000     0.346300000000     0          
H292     H      0.271920000000     0.500000000000     0.389680000000     0          
C293     C      0.244800000000     0.500000000000     0.308200000000     0          
H294     H      0.201540000000     0.500000000000     0.320030000000     0          
C295     C      0.042700000000     0.500000000000     0.109800000000     0          
C296     C      0.026300000000     0.500000000000     0.164300000000     0          
H297     H      0.048720000000     0.500000000000     0.203140000000     0          
O298     O      0.640510000000     0.500000000000     0.576800000000     0          
C299     C      0.716700000000     0.500000000000     0.653700000000     0          
H300     H      0.728080000000     0.500000000000     0.610320000000     0          
C301     C      0.755200000000     0.500000000000     0.691800000000     0          
H302     H      0.798460000000     0.500000000000     0.679970000000     0          
C303     C      0.957300000000     0.500000000000     0.890200000000     0          
C304     C      0.973700000000     0.500000000000     0.835700000000     0          
H305     H      0.942970000000     0.500000000000     0.803040000000     0          
O306     O      0.359490000000     0.576800000000     0.500000000000     0          
C307     C      0.283300000000     0.653700000000     0.500000000000     0          
H308     H      0.271920000000     0.610320000000     0.500000000000     0          
C309     C      0.244800000000     0.691800000000     0.500000000000     0          
H310     H      0.201540000000     0.679970000000     0.500000000000     0          
C311     C      0.042700000000     0.890200000000     0.500000000000     0          
C312     C      0.026300000000     0.835700000000     0.500000000000     0          
H313     H      0.057030000000     0.803040000000     0.500000000000     0          
O314     O      0.640510000000     0.423200000000     0.500000000000     0          
C315     C      0.716700000000     0.346300000000     0.500000000000     0          
H316     H      0.728080000000     0.389680000000     0.500000000000     0          
C317     C      0.755200000000     0.308200000000     0.500000000000     0          
H318     H      0.798460000000     0.320030000000     0.500000000000     0          
C319     C      0.957300000000     0.109800000000     0.500000000000     0          
C320     C      0.973700000000     0.164300000000     0.500000000000     0          
H321     H      0.942970000000     0.196960000000     0.500000000000     0          
O322     O      0.359490000000     0.423200000000     0.500000000000     0          
C323     C      0.283300000000     0.346300000000     0.500000000000     0          
H324     H      0.271920000000     0.389680000000     0.500000000000     0          
C325     C      0.244800000000     0.308200000000     0.500000000000     0          
H326     H      0.201540000000     0.320030000000     0.500000000000     0          
C327     C      0.042700000000     0.109800000000     0.500000000000     0          
C328     C      0.026300000000     0.164300000000     0.500000000000     0          
H329     H      0.048720000000     0.203140000000     0.500000000000     0          
O330     O      0.640510000000     0.576800000000     0.500000000000     0          
C331     C      0.716700000000     0.653700000000     0.500000000000     0          
H332     H      0.728080000000     0.610320000000     0.500000000000     0          
C333     C      0.755200000000     0.691800000000     0.500000000000     0          
H334     H      0.798460000000     0.679970000000     0.500000000000     0          
C335     C      0.957300000000     0.890200000000     0.500000000000     0          
C336     C      0.973700000000     0.835700000000     0.500000000000     0          
H337     H      0.942970000000     0.803040000000     0.500000000000     0          
O338     O      0.576800000000     0.500000000000     0.640510000000     0          
C339     C      0.653700000000     0.500000000000     0.716700000000     0          
H340     H      0.610320000000     0.500000000000     0.728080000000     0          
C341     C      0.691800000000     0.500000000000     0.755200000000     0          
H342     H      0.679970000000     0.500000000000     0.798460000000     0          
C343     C      0.890200000000     0.500000000000     0.957300000000     0          
C344     C      0.835700000000     0.500000000000     0.973700000000     0          
H345     H      0.803040000000     0.500000000000     0.942970000000     0          
O346     O      0.423200000000     0.500000000000     0.359490000000     0          
C347     C      0.346300000000     0.500000000000     0.283300000000     0          
H348     H      0.389680000000     0.500000000000     0.271920000000     0          
C349     C      0.308200000000     0.500000000000     0.244800000000     0          
H350     H      0.320030000000     0.500000000000     0.201540000000     0          
C351     C      0.109800000000     0.500000000000     0.042700000000     0          
C352     C      0.164300000000     0.500000000000     0.026300000000     0          
H353     H      0.196960000000     0.500000000000     0.057030000000     0          
O354     O      0.423200000000     0.500000000000     0.640510000000     0          
C355     C      0.346300000000     0.500000000000     0.716700000000     0          
H356     H      0.389680000000     0.500000000000     0.728080000000     0          
C357     C      0.308200000000     0.500000000000     0.755200000000     0          
H358     H      0.320030000000     0.500000000000     0.798460000000     0          
C359     C      0.109800000000     0.500000000000     0.957300000000     0          
C360     C      0.164300000000     0.500000000000     0.973700000000     0          
H361     H      0.196960000000     0.500000000000     0.942970000000     0          
O362     O      0.576800000000     0.500000000000     0.359490000000     0          
C363     C      0.653700000000     0.500000000000     0.283300000000     0          
H364     H      0.610320000000     0.500000000000     0.271920000000     0          
C365     C      0.691800000000     0.500000000000     0.244800000000     0          
H366     H      0.679970000000     0.500000000000     0.201540000000     0          
C367     C      0.890200000000     0.500000000000     0.042700000000     0          
C368     C      0.835700000000     0.500000000000     0.026300000000     0          
H369     H      0.803040000000     0.500000000000     0.057030000000     0          
O370     O      0.500000000000     0.359490000000     0.423200000000     0          
C371     C      0.500000000000     0.283300000000     0.346300000000     0          
H372     H      0.500000000000     0.271920000000     0.389680000000     0          
C373     C      0.500000000000     0.244800000000     0.308200000000     0          
H374     H      0.500000000000     0.201540000000     0.320030000000     0          
C375     C      0.500000000000     0.042700000000     0.109800000000     0          
C376     C      0.500000000000     0.026300000000     0.164300000000     0          
H377     H      0.500000000000     0.057030000000     0.196960000000     0          
O378     O      0.500000000000     0.640510000000     0.576800000000     0          
C379     C      0.500000000000     0.716700000000     0.653700000000     0          
H380     H      0.500000000000     0.728080000000     0.610320000000     0          
C381     C      0.500000000000     0.755200000000     0.691800000000     0          
H382     H      0.500000000000     0.798460000000     0.679970000000     0          
C383     C      0.500000000000     0.957300000000     0.890200000000     0          
C384     C      0.500000000000     0.973700000000     0.835700000000     0          
H385     H      0.500000000000     0.942970000000     0.803040000000     0          
O386     O      0.500000000000     0.359490000000     0.576800000000     0          
C387     C      0.500000000000     0.283300000000     0.653700000000     0          
H388     H      0.500000000000     0.271920000000     0.610320000000     0          
C389     C      0.500000000000     0.244800000000     0.691800000000     0          
H390     H      0.500000000000     0.201540000000     0.679970000000     0          
C391     C      0.500000000000     0.042700000000     0.890200000000     0          
C392     C      0.500000000000     0.026300000000     0.835700000000     0          
H393     H      0.500000000000     0.057030000000     0.803040000000     0          
O394     O      0.500000000000     0.640510000000     0.423200000000     0          
C395     C      0.500000000000     0.716700000000     0.346300000000     0          
H396     H      0.500000000000     0.728080000000     0.389680000000     0          
C397     C      0.500000000000     0.755200000000     0.308200000000     0          
H398     H      0.500000000000     0.798460000000     0.320030000000     0          
C399     C      0.500000000000     0.957300000000     0.109800000000     0          
C400     C      0.500000000000     0.973700000000     0.164300000000     0          
H401     H      0.500000000000     0.951280000000     0.203140000000     0          
N402     N      0.921800000000     0.000000000000     0.500000000000     0          
N403     N      0.078200000000     0.000000000000     0.500000000000     0          
N404     N      0.500000000000     0.921800000000     0.000000000000     0          
N405     N      0.500000000000     0.078200000000     0.000000000000     0          
N406     N      0.000000000000     0.500000000000     0.921800000000     0          
N407     N      0.000000000000     0.500000000000     0.078200000000     0          
N408     N      0.000000000000     0.921800000000     0.500000000000     0          
N409     N      0.000000000000     0.078200000000     0.500000000000     0          
N410     N      0.921800000000     0.500000000000     0.000000000000     0          
N411     N      0.078200000000     0.500000000000     0.000000000000     0          
N412     N      0.500000000000     0.000000000000     0.078200000000     0          
N413     N      0.500000000000     0.000000000000     0.921800000000     0          
C414     C      0.624370000000     0.375630000000     0.500000000000     0          
C415     C      0.666090000000     0.333910000000     0.500000000000     0          
C416     C      0.743300000000     0.256700000000     0.500000000000     0          
C417     C      0.785500000000     0.214500000000     0.500000000000     0          
C418     C      0.862800000000     0.137200000000     0.500000000000     0          
C419     C      0.904800000000     0.095200000000     0.500000000000     0          
C420     C      0.375630000000     0.624370000000     0.500000000000     0          
C421     C      0.333910000000     0.666090000000     0.500000000000     0          
C422     C      0.256700000000     0.743300000000     0.500000000000     0          
C423     C      0.214500000000     0.785500000000     0.500000000000     0          
C424     C      0.137200000000     0.862800000000     0.500000000000     0          
C425     C      0.095200000000     0.904800000000     0.500000000000     0          
C426     C      0.375630000000     0.375630000000     0.500000000000     0          
C427     C      0.333910000000     0.333910000000     0.500000000000     0          
C428     C      0.256700000000     0.256700000000     0.500000000000     0          
C429     C      0.214500000000     0.214500000000     0.500000000000     0          
C430     C      0.137200000000     0.137200000000     0.500000000000     0          
C431     C      0.095200000000     0.095200000000     0.500000000000     0          
C432     C      0.624370000000     0.624370000000     0.500000000000     0          
C433     C      0.666090000000     0.666090000000     0.500000000000     0          
C434     C      0.743300000000     0.743300000000     0.500000000000     0          
C435     C      0.785500000000     0.785500000000     0.500000000000     0          
C436     C      0.862800000000     0.862800000000     0.500000000000     0          
C437     C      0.904800000000     0.904800000000     0.500000000000     0          
C438     C      0.500000000000     0.624370000000     0.375630000000     0          
C439     C      0.500000000000     0.666090000000     0.333910000000     0          
C440     C      0.500000000000     0.743300000000     0.256700000000     0          
C441     C      0.500000000000     0.785500000000     0.214500000000     0          
C442     C      0.500000000000     0.862800000000     0.137200000000     0          
C443     C      0.500000000000     0.904800000000     0.095200000000     0          
C444     C      0.500000000000     0.375630000000     0.624370000000     0          
C445     C      0.500000000000     0.333910000000     0.666090000000     0          
C446     C      0.500000000000     0.256700000000     0.743300000000     0          
C447     C      0.500000000000     0.214500000000     0.785500000000     0          
C448     C      0.500000000000     0.137200000000     0.862800000000     0          
C449     C      0.500000000000     0.095200000000     0.904800000000     0          
C450     C      0.500000000000     0.375630000000     0.375630000000     0          
C451     C      0.500000000000     0.333910000000     0.333910000000     0          
C452     C      0.500000000000     0.256700000000     0.256700000000     0          
C453     C      0.500000000000     0.214500000000     0.214500000000     0          
C454     C      0.500000000000     0.137200000000     0.137200000000     0          
C455     C      0.500000000000     0.095200000000     0.095200000000     0          
C456     C      0.500000000000     0.624370000000     0.624370000000     0          
C457     C      0.500000000000     0.666090000000     0.666090000000     0          
C458     C      0.500000000000     0.743300000000     0.743300000000     0          
C459     C      0.500000000000     0.785500000000     0.785500000000     0          
C460     C      0.500000000000     0.862800000000     0.862800000000     0          
C461     C      0.500000000000     0.904800000000     0.904800000000     0          
C462     C      0.375630000000     0.500000000000     0.624370000000     0          
C463     C      0.333910000000     0.500000000000     0.666090000000     0          
C464     C      0.256700000000     0.500000000000     0.743300000000     0          
C465     C      0.214500000000     0.500000000000     0.785500000000     0          
C466     C      0.137200000000     0.500000000000     0.862800000000     0          
C467     C      0.095200000000     0.500000000000     0.904800000000     0          
C468     C      0.624370000000     0.500000000000     0.375630000000     0          
C469     C      0.666090000000     0.500000000000     0.333910000000     0          
C470     C      0.743300000000     0.500000000000     0.256700000000     0          
C471     C      0.785500000000     0.500000000000     0.214500000000     0          
C472     C      0.862800000000     0.500000000000     0.137200000000     0          
C473     C      0.904800000000     0.500000000000     0.095200000000     0          
C474     C      0.375630000000     0.500000000000     0.375630000000     0          
C475     C      0.333910000000     0.500000000000     0.333910000000     0          
C476     C      0.256700000000     0.500000000000     0.256700000000     0          
C477     C      0.214500000000     0.500000000000     0.214500000000     0          
C478     C      0.137200000000     0.500000000000     0.137200000000     0          
C479     C      0.095200000000     0.500000000000     0.095200000000     0          
C480     C      0.624370000000     0.500000000000     0.624370000000     0          
C481     C      0.666090000000     0.500000000000     0.666090000000     0          
C482     C      0.743300000000     0.500000000000     0.743300000000     0          
C483     C      0.785500000000     0.500000000000     0.785500000000     0          
C484     C      0.862800000000     0.500000000000     0.862800000000     0          
C485     C      0.904800000000     0.500000000000     0.904800000000     0          


