data_UYUGEC

_audit_creation_method RASPA-1.0
_audit_creation_date 2020-11-2
_audit_author_name 'Rocio Bueno-Perez'

_cell_length_a    17.5411
_cell_length_b    17.5411
_cell_length_c    34.6975
_cell_angle_alpha 90
_cell_angle_beta  90
_cell_angle_gamma 90
_cell_volume      10676.1

_symmetry_cell_setting          triclinic
_symmetry_space_group_name_Hall 'P 1'
_symmetry_space_group_name_H-M  'P 1'
_symmetry_Int_Tables_number     1

_symmetry_equiv_pos_as_xyz 'x,y,z'

loop_
_atom_site_label
_atom_site_type_symbol
_atom_site_fract_x
_atom_site_fract_y
_atom_site_fract_z
_atom_site_charge
I1       I      0.131520000000     0.500000000000     0.206250000000     0          
Cu2      Cu     0.075030000000     0.500000000000     0.276710000000     0          
O3       O      0.300390000000     0.500000000000     0.441010000000     0          
O4       O      0.392870000000     0.500000000000     0.396450000000     0          
N5       N      0.157200000000     0.500000000000     0.317740000000     0          
C6       C      0.231100000000     0.500000000000     0.309320000000     0          
H7       H      0.246100000000     0.500000000000     0.283000000000     0          
C8       C      0.286900000000     0.500000000000     0.337570000000     0          
H9       H      0.339400000000     0.500000000000     0.330800000000     0          
C10      C      0.265000000000     0.500000000000     0.375440000000     0          
C11      C      0.190100000000     0.500000000000     0.383790000000     0          
H12      H      0.173300000000     0.500000000000     0.409800000000     0          
C13      C      0.138000000000     0.500000000000     0.353810000000     0          
H14      H      0.085300000000     0.500000000000     0.360000000000     0          
C15      C      0.324900000000     0.500000000000     0.406930000000     0          
I16      I      0.631520000000     0.000000000000     0.706250000000     0          
Cu17     Cu     0.575030000000     0.000000000000     0.776710000000     0          
O18      O      0.800390000000     0.000000000000     0.941010000000     0          
O19      O      0.892870000000     0.000000000000     0.896450000000     0          
N20      N      0.657200000000     0.000000000000     0.817740000000     0          
C21      C      0.731100000000     0.000000000000     0.809320000000     0          
H22      H      0.746100000000     0.000000000000     0.783000000000     0          
C23      C      0.786900000000     0.000000000000     0.837570000000     0          
H24      H      0.839400000000     0.000000000000     0.830800000000     0          
C25      C      0.765000000000     0.000000000000     0.875440000000     0          
C26      C      0.690100000000     0.000000000000     0.883790000000     0          
H27      H      0.673300000000     0.000000000000     0.909800000000     0          
C28      C      0.638000000000     0.000000000000     0.853810000000     0          
H29      H      0.585300000000     0.000000000000     0.860000000000     0          
C30      C      0.824900000000     0.000000000000     0.906930000000     0          
I31      I      0.868480000000     0.500000000000     0.206250000000     0          
Cu32     Cu     0.924970000000     0.500000000000     0.276710000000     0          
O33      O      0.699610000000     0.500000000000     0.441010000000     0          
O34      O      0.607130000000     0.500000000000     0.396450000000     0          
N35      N      0.842800000000     0.500000000000     0.317740000000     0          
C36      C      0.768900000000     0.500000000000     0.309320000000     0          
H37      H      0.753900000000     0.500000000000     0.283000000000     0          
C38      C      0.713100000000     0.500000000000     0.337570000000     0          
H39      H      0.660600000000     0.500000000000     0.330800000000     0          
C40      C      0.735000000000     0.500000000000     0.375440000000     0          
C41      C      0.809900000000     0.500000000000     0.383790000000     0          
H42      H      0.826700000000     0.500000000000     0.409800000000     0          
C43      C      0.862000000000     0.500000000000     0.353810000000     0          
H44      H      0.914700000000     0.500000000000     0.360000000000     0          
C45      C      0.675100000000     0.500000000000     0.406930000000     0          
I46      I      0.368480000000     0.000000000000     0.706250000000     0          
Cu47     Cu     0.424970000000     0.000000000000     0.776710000000     0          
O48      O      0.199610000000     0.000000000000     0.941010000000     0          
O49      O      0.107130000000     0.000000000000     0.896450000000     0          
N50      N      0.342800000000     0.000000000000     0.817740000000     0          
C51      C      0.268900000000     0.000000000000     0.809320000000     0          
H52      H      0.253900000000     0.000000000000     0.783000000000     0          
C53      C      0.213100000000     0.000000000000     0.837570000000     0          
H54      H      0.160600000000     0.000000000000     0.830800000000     0          
C55      C      0.235000000000     0.000000000000     0.875440000000     0          
C56      C      0.309900000000     0.000000000000     0.883790000000     0          
H57      H      0.326700000000     0.000000000000     0.909800000000     0          
C58      C      0.362000000000     0.000000000000     0.853810000000     0          
H59      H      0.414700000000     0.000000000000     0.860000000000     0          
C60      C      0.175100000000     0.000000000000     0.906930000000     0          
I61      I      0.500000000000     0.131520000000     0.206250000000     0          
Cu62     Cu     0.500000000000     0.075030000000     0.276710000000     0          
O63      O      0.500000000000     0.300390000000     0.441010000000     0          
O64      O      0.500000000000     0.392870000000     0.396450000000     0          
N65      N      0.500000000000     0.157200000000     0.317740000000     0          
C66      C      0.500000000000     0.231100000000     0.309320000000     0          
H67      H      0.500000000000     0.246100000000     0.283000000000     0          
C68      C      0.500000000000     0.286900000000     0.337570000000     0          
H69      H      0.500000000000     0.339400000000     0.330800000000     0          
C70      C      0.500000000000     0.265000000000     0.375440000000     0          
C71      C      0.500000000000     0.190100000000     0.383790000000     0          
H72      H      0.500000000000     0.173300000000     0.409800000000     0          
C73      C      0.500000000000     0.138000000000     0.353810000000     0          
H74      H      0.500000000000     0.085300000000     0.360000000000     0          
C75      C      0.500000000000     0.324900000000     0.406930000000     0          
I76      I      0.000000000000     0.631520000000     0.706250000000     0          
Cu77     Cu     0.000000000000     0.575030000000     0.776710000000     0          
O78      O      0.000000000000     0.800390000000     0.941010000000     0          
O79      O      0.000000000000     0.892870000000     0.896450000000     0          
N80      N      0.000000000000     0.657200000000     0.817740000000     0          
C81      C      0.000000000000     0.731100000000     0.809320000000     0          
H82      H      0.000000000000     0.746100000000     0.783000000000     0          
C83      C      0.000000000000     0.786900000000     0.837570000000     0          
H84      H      0.000000000000     0.839400000000     0.830800000000     0          
C85      C      0.000000000000     0.765000000000     0.875440000000     0          
C86      C      0.000000000000     0.690100000000     0.883790000000     0          
H87      H      0.000000000000     0.673300000000     0.909800000000     0          
C88      C      0.000000000000     0.638000000000     0.853810000000     0          
H89      H      0.000000000000     0.585300000000     0.860000000000     0          
C90      C      0.000000000000     0.824900000000     0.906930000000     0          
I91      I      0.500000000000     0.868480000000     0.206250000000     0          
Cu92     Cu     0.500000000000     0.924970000000     0.276710000000     0          
O93      O      0.500000000000     0.699610000000     0.441010000000     0          
O94      O      0.500000000000     0.607130000000     0.396450000000     0          
N95      N      0.500000000000     0.842800000000     0.317740000000     0          
C96      C      0.500000000000     0.768900000000     0.309320000000     0          
H97      H      0.500000000000     0.753900000000     0.283000000000     0          
C98      C      0.500000000000     0.713100000000     0.337570000000     0          
H99      H      0.500000000000     0.660600000000     0.330800000000     0          
C100     C      0.500000000000     0.735000000000     0.375440000000     0          
C101     C      0.500000000000     0.809900000000     0.383790000000     0          
H102     H      0.500000000000     0.826700000000     0.409800000000     0          
C103     C      0.500000000000     0.862000000000     0.353810000000     0          
H104     H      0.500000000000     0.914700000000     0.360000000000     0          
C105     C      0.500000000000     0.675100000000     0.406930000000     0          
I106     I      0.000000000000     0.368480000000     0.706250000000     0          
Cu107    Cu     0.000000000000     0.424970000000     0.776710000000     0          
O108     O      0.000000000000     0.199610000000     0.941010000000     0          
O109     O      0.000000000000     0.107130000000     0.896450000000     0          
N110     N      0.000000000000     0.342800000000     0.817740000000     0          
C111     C      0.000000000000     0.268900000000     0.809320000000     0          
H112     H      0.000000000000     0.253900000000     0.783000000000     0          
C113     C      0.000000000000     0.213100000000     0.837570000000     0          
H114     H      0.000000000000     0.160600000000     0.830800000000     0          
C115     C      0.000000000000     0.235000000000     0.875440000000     0          
C116     C      0.000000000000     0.309900000000     0.883790000000     0          
H117     H      0.000000000000     0.326700000000     0.909800000000     0          
C118     C      0.000000000000     0.362000000000     0.853810000000     0          
H119     H      0.000000000000     0.414700000000     0.860000000000     0          
C120     C      0.000000000000     0.175100000000     0.906930000000     0          
I121     I      0.868480000000     0.500000000000     0.793750000000     0          
Cu122    Cu     0.924970000000     0.500000000000     0.723290000000     0          
O123     O      0.699610000000     0.500000000000     0.558990000000     0          
O124     O      0.607130000000     0.500000000000     0.603550000000     0          
N125     N      0.842800000000     0.500000000000     0.682260000000     0          
C126     C      0.768900000000     0.500000000000     0.690680000000     0          
H127     H      0.753900000000     0.500000000000     0.717000000000     0          
C128     C      0.713100000000     0.500000000000     0.662430000000     0          
H129     H      0.660600000000     0.500000000000     0.669200000000     0          
C130     C      0.735000000000     0.500000000000     0.624560000000     0          
C131     C      0.809900000000     0.500000000000     0.616210000000     0          
H132     H      0.826700000000     0.500000000000     0.590200000000     0          
C133     C      0.862000000000     0.500000000000     0.646190000000     0          
H134     H      0.914700000000     0.500000000000     0.640000000000     0          
C135     C      0.675100000000     0.500000000000     0.593070000000     0          
I136     I      0.368480000000     0.000000000000     0.293750000000     0          
Cu137    Cu     0.424970000000     0.000000000000     0.223290000000     0          
O138     O      0.199610000000     0.000000000000     0.058990000000     0          
O139     O      0.107130000000     0.000000000000     0.103550000000     0          
N140     N      0.342800000000     0.000000000000     0.182260000000     0          
C141     C      0.268900000000     0.000000000000     0.190680000000     0          
H142     H      0.253900000000     0.000000000000     0.217000000000     0          
C143     C      0.213100000000     0.000000000000     0.162430000000     0          
H144     H      0.160600000000     0.000000000000     0.169200000000     0          
C145     C      0.235000000000     0.000000000000     0.124560000000     0          
C146     C      0.309900000000     0.000000000000     0.116210000000     0          
H147     H      0.326700000000     0.000000000000     0.090200000000     0          
C148     C      0.362000000000     0.000000000000     0.146190000000     0          
H149     H      0.414700000000     0.000000000000     0.140000000000     0          
C150     C      0.175100000000     0.000000000000     0.093070000000     0          
I151     I      0.131520000000     0.500000000000     0.793750000000     0          
Cu152    Cu     0.075030000000     0.500000000000     0.723290000000     0          
O153     O      0.300390000000     0.500000000000     0.558990000000     0          
O154     O      0.392870000000     0.500000000000     0.603550000000     0          
N155     N      0.157200000000     0.500000000000     0.682260000000     0          
C156     C      0.231100000000     0.500000000000     0.690680000000     0          
H157     H      0.246100000000     0.500000000000     0.717000000000     0          
C158     C      0.286900000000     0.500000000000     0.662430000000     0          
H159     H      0.339400000000     0.500000000000     0.669200000000     0          
C160     C      0.265000000000     0.500000000000     0.624560000000     0          
C161     C      0.190100000000     0.500000000000     0.616210000000     0          
H162     H      0.173300000000     0.500000000000     0.590200000000     0          
C163     C      0.138000000000     0.500000000000     0.646190000000     0          
H164     H      0.085300000000     0.500000000000     0.640000000000     0          
C165     C      0.324900000000     0.500000000000     0.593070000000     0          
I166     I      0.631520000000     0.000000000000     0.293750000000     0          
Cu167    Cu     0.575030000000     0.000000000000     0.223290000000     0          
O168     O      0.800390000000     0.000000000000     0.058990000000     0          
O169     O      0.892870000000     0.000000000000     0.103550000000     0          
N170     N      0.657200000000     0.000000000000     0.182260000000     0          
C171     C      0.731100000000     0.000000000000     0.190680000000     0          
H172     H      0.746100000000     0.000000000000     0.217000000000     0          
C173     C      0.786900000000     0.000000000000     0.162430000000     0          
H174     H      0.839400000000     0.000000000000     0.169200000000     0          
C175     C      0.765000000000     0.000000000000     0.124560000000     0          
C176     C      0.690100000000     0.000000000000     0.116210000000     0          
H177     H      0.673300000000     0.000000000000     0.090200000000     0          
C178     C      0.638000000000     0.000000000000     0.146190000000     0          
H179     H      0.585300000000     0.000000000000     0.140000000000     0          
C180     C      0.824900000000     0.000000000000     0.093070000000     0          
I181     I      0.500000000000     0.131520000000     0.793750000000     0          
Cu182    Cu     0.500000000000     0.075030000000     0.723290000000     0          
O183     O      0.500000000000     0.300390000000     0.558990000000     0          
O184     O      0.500000000000     0.392870000000     0.603550000000     0          
N185     N      0.500000000000     0.157200000000     0.682260000000     0          
C186     C      0.500000000000     0.231100000000     0.690680000000     0          
H187     H      0.500000000000     0.246100000000     0.717000000000     0          
C188     C      0.500000000000     0.286900000000     0.662430000000     0          
H189     H      0.500000000000     0.339400000000     0.669200000000     0          
C190     C      0.500000000000     0.265000000000     0.624560000000     0          
C191     C      0.500000000000     0.190100000000     0.616210000000     0          
H192     H      0.500000000000     0.173300000000     0.590200000000     0          
C193     C      0.500000000000     0.138000000000     0.646190000000     0          
H194     H      0.500000000000     0.085300000000     0.640000000000     0          
C195     C      0.500000000000     0.324900000000     0.593070000000     0          
I196     I      0.000000000000     0.631520000000     0.293750000000     0          
Cu197    Cu     0.000000000000     0.575030000000     0.223290000000     0          
O198     O      0.000000000000     0.800390000000     0.058990000000     0          
O199     O      0.000000000000     0.892870000000     0.103550000000     0          
N200     N      0.000000000000     0.657200000000     0.182260000000     0          
C201     C      0.000000000000     0.731100000000     0.190680000000     0          
H202     H      0.000000000000     0.746100000000     0.217000000000     0          
C203     C      0.000000000000     0.786900000000     0.162430000000     0          
H204     H      0.000000000000     0.839400000000     0.169200000000     0          
C205     C      0.000000000000     0.765000000000     0.124560000000     0          
C206     C      0.000000000000     0.690100000000     0.116210000000     0          
H207     H      0.000000000000     0.673300000000     0.090200000000     0          
C208     C      0.000000000000     0.638000000000     0.146190000000     0          
H209     H      0.000000000000     0.585300000000     0.140000000000     0          
C210     C      0.000000000000     0.824900000000     0.093070000000     0          
I211     I      0.500000000000     0.868480000000     0.793750000000     0          
Cu212    Cu     0.500000000000     0.924970000000     0.723290000000     0          
O213     O      0.500000000000     0.699610000000     0.558990000000     0          
O214     O      0.500000000000     0.607130000000     0.603550000000     0          
N215     N      0.500000000000     0.842800000000     0.682260000000     0          
C216     C      0.500000000000     0.768900000000     0.690680000000     0          
H217     H      0.500000000000     0.753900000000     0.717000000000     0          
C218     C      0.500000000000     0.713100000000     0.662430000000     0          
H219     H      0.500000000000     0.660600000000     0.669200000000     0          
C220     C      0.500000000000     0.735000000000     0.624560000000     0          
C221     C      0.500000000000     0.809900000000     0.616210000000     0          
H222     H      0.500000000000     0.826700000000     0.590200000000     0          
C223     C      0.500000000000     0.862000000000     0.646190000000     0          
H224     H      0.500000000000     0.914700000000     0.640000000000     0          
C225     C      0.500000000000     0.675100000000     0.593070000000     0          
I226     I      0.000000000000     0.368480000000     0.293750000000     0          
Cu227    Cu     0.000000000000     0.424970000000     0.223290000000     0          
O228     O      0.000000000000     0.199610000000     0.058990000000     0          
O229     O      0.000000000000     0.107130000000     0.103550000000     0          
N230     N      0.000000000000     0.342800000000     0.182260000000     0          
C231     C      0.000000000000     0.268900000000     0.190680000000     0          
H232     H      0.000000000000     0.253900000000     0.217000000000     0          
C233     C      0.000000000000     0.213100000000     0.162430000000     0          
H234     H      0.000000000000     0.160600000000     0.169200000000     0          
C235     C      0.000000000000     0.235000000000     0.124560000000     0          
C236     C      0.000000000000     0.309900000000     0.116210000000     0          
H237     H      0.000000000000     0.326700000000     0.090200000000     0          
C238     C      0.000000000000     0.362000000000     0.146190000000     0          
H239     H      0.000000000000     0.414700000000     0.140000000000     0          
C240     C      0.000000000000     0.175100000000     0.093070000000     0          
Zr241    Zr     0.500000000000     0.500000000000     0.429410000000     0          
Zr242    Zr     0.000000000000     0.000000000000     0.929410000000     0          
Zr243    Zr     0.500000000000     0.500000000000     0.570590000000     0          
Zr244    Zr     0.000000000000     0.000000000000     0.070590000000     0          
Zr245    Zr     0.642490000000     0.500000000000     0.500000000000     0          
Zr246    Zr     0.142490000000     0.000000000000     0.000000000000     0          
Zr247    Zr     0.357510000000     0.500000000000     0.500000000000     0          
Zr248    Zr     0.857510000000     0.000000000000     0.000000000000     0          
Zr249    Zr     0.500000000000     0.642490000000     0.500000000000     0          
Zr250    Zr     0.000000000000     0.142490000000     0.000000000000     0          
Zr251    Zr     0.500000000000     0.357510000000     0.500000000000     0          
Zr252    Zr     0.000000000000     0.857510000000     0.000000000000     0          
O253     O      0.571400000000     0.428600000000     0.465500000000     0          
H254     H      0.598200000000     0.401800000000     0.451700000000     0          
O255     O      0.071400000000     0.928600000000     0.965500000000     0          
H256     H      0.098200000000     0.901800000000     0.951700000000     0          
O257     O      0.428600000000     0.571400000000     0.465500000000     0          
H258     H      0.401800000000     0.598200000000     0.451700000000     0          
O259     O      0.928600000000     0.071400000000     0.965500000000     0          
H260     H      0.901800000000     0.098200000000     0.951700000000     0          
O261     O      0.571400000000     0.571400000000     0.465500000000     0          
H262     H      0.598200000000     0.598200000000     0.451700000000     0          
O263     O      0.071400000000     0.071400000000     0.965500000000     0          
H264     H      0.098200000000     0.098200000000     0.951700000000     0          
O265     O      0.428600000000     0.428600000000     0.465500000000     0          
H266     H      0.401800000000     0.401800000000     0.451700000000     0          
O267     O      0.928600000000     0.928600000000     0.965500000000     0          
H268     H      0.901800000000     0.901800000000     0.951700000000     0          
O269     O      0.428600000000     0.428600000000     0.534500000000     0          
H270     H      0.401800000000     0.401800000000     0.548300000000     0          
O271     O      0.928600000000     0.928600000000     0.034500000000     0          
H272     H      0.901800000000     0.901800000000     0.048300000000     0          
O273     O      0.571400000000     0.571400000000     0.534500000000     0          
H274     H      0.598200000000     0.598200000000     0.548300000000     0          
O275     O      0.071400000000     0.071400000000     0.034500000000     0          
H276     H      0.098200000000     0.098200000000     0.048300000000     0          
O277     O      0.428600000000     0.571400000000     0.534500000000     0          
H278     H      0.401800000000     0.598200000000     0.548300000000     0          
O279     O      0.928600000000     0.071400000000     0.034500000000     0          
H280     H      0.901800000000     0.098200000000     0.048300000000     0          
O281     O      0.571400000000     0.428600000000     0.534500000000     0          
H282     H      0.598200000000     0.401800000000     0.548300000000     0          
O283     O      0.071400000000     0.928600000000     0.034500000000     0          
H284     H      0.098200000000     0.901800000000     0.048300000000     0          
O285     O      0.724600000000     0.406100000000     0.500000000000     0          
H286     H      0.767900000000     0.423800000000     0.500000000000     0          
O287     O      0.224600000000     0.906100000000     0.000000000000     0          
H288     H      0.267900000000     0.923800000000     0.000000000000     0          
O289     O      0.275400000000     0.593900000000     0.500000000000     0          
H290     H      0.232100000000     0.576200000000     0.500000000000     0          
O291     O      0.775400000000     0.093900000000     0.000000000000     0          
H292     H      0.732100000000     0.076200000000     0.000000000000     0          
O293     O      0.593900000000     0.724600000000     0.500000000000     0          
H294     H      0.576200000000     0.767900000000     0.500000000000     0          
O295     O      0.093900000000     0.224600000000     0.000000000000     0          
H296     H      0.076200000000     0.267900000000     0.000000000000     0          
O297     O      0.406100000000     0.275400000000     0.500000000000     0          
H298     H      0.423800000000     0.232100000000     0.500000000000     0          
O299     O      0.906100000000     0.775400000000     0.000000000000     0          
H300     H      0.923800000000     0.732100000000     0.000000000000     0          
O301     O      0.275400000000     0.406100000000     0.500000000000     0          
H302     H      0.232100000000     0.423800000000     0.500000000000     0          
O303     O      0.775400000000     0.906100000000     0.000000000000     0          
H304     H      0.732100000000     0.923800000000     0.000000000000     0          
O305     O      0.724600000000     0.593900000000     0.500000000000     0          
H306     H      0.767900000000     0.576200000000     0.500000000000     0          
O307     O      0.224600000000     0.093900000000     0.000000000000     0          
H308     H      0.267900000000     0.076200000000     0.000000000000     0          
O309     O      0.406100000000     0.724600000000     0.500000000000     0          
H310     H      0.423800000000     0.767900000000     0.500000000000     0          
O311     O      0.906100000000     0.224600000000     0.000000000000     0          
H312     H      0.923800000000     0.267900000000     0.000000000000     0          
O313     O      0.593900000000     0.275400000000     0.500000000000     0          
H314     H      0.576200000000     0.232100000000     0.500000000000     0          
O315     O      0.093900000000     0.775400000000     0.000000000000     0          
H316     H      0.076200000000     0.732100000000     0.000000000000     0          


