data_VIZFOC

_audit_creation_method RASPA-1.0
_audit_creation_date 2020-11-2
_audit_author_name 'Rocio Bueno-Perez'

_cell_length_a    35.346
_cell_length_b    18.477
_cell_length_c    18.0998
_cell_angle_alpha 90
_cell_angle_beta  92.956
_cell_angle_gamma 90
_cell_volume      11805

_symmetry_cell_setting          triclinic
_symmetry_space_group_name_Hall 'P 1'
_symmetry_space_group_name_H-M  'P 1'
_symmetry_Int_Tables_number     1

_symmetry_equiv_pos_as_xyz 'x,y,z'

loop_
_atom_site_label
_atom_site_type_symbol
_atom_site_fract_x
_atom_site_fract_y
_atom_site_fract_z
_atom_site_charge
Zr1      Zr     0.002320000000     0.595910000000     0.598220000000     0          
O2       O      0.900640000000     0.573700000000     0.573500000000     0          
O3       O      0.602700000000     0.928500000000     0.575000000000     0          
O4       O      0.967120000000     0.585500000000     0.506500000000     0          
O5       O      0.560710000000     0.870800000000     0.635700000000     0          
O6       O      0.004300000000     0.591300000000     0.719700000000     0          
O7       O      0.002600000000     0.715400000000     0.598100000000     0          
C8       C      0.594000000000     0.884000000000     0.622200000000     0          
C9       C      0.887600000000     0.683100000000     0.732800000000     0          
H10      H      0.917840000000     0.694180000000     0.754840000000     0          
C11      C      0.880900000000     0.643300000000     0.665000000000     0          
C12      C      0.910500000000     0.614400000000     0.621300000000     0          
C13      C      0.821500000000     0.699600000000     0.748300000000     0          
C14      C      0.626800000000     0.856100000000     0.667300000000     0          
C15      C      0.654200000000     0.783900000000     0.770300000000     0          
H16      H      0.650530000000     0.747690000000     0.820420000000     0          
N17      N      0.764200000000     0.738800000000     0.983500000000     0          
C18      C      0.623200000000     0.811800000000     0.732500000000     0          
H19      H      0.593970000000     0.799580000000     0.753250000000     0          
C20      C      0.859200000000     0.706700000000     0.769400000000     0          
H21      H      0.864710000000     0.736250000000     0.824190000000     0          
C22      C      0.756100000000     0.750600000000     0.753700000000     0          
H23      H      0.754150000000     0.756870000000     0.690960000000     0          
C24      C      0.725900000000     0.767800000000     0.867200000000     0          
H25      H      0.699380000000     0.782090000000     0.897380000000     0          
C26      C      0.843500000000     0.632700000000     0.641400000000     0          
H27      H      0.836340000000     0.601180000000     0.588370000000     0          
C28      C      0.788100000000     0.721500000000     0.788300000000     0          
C29      C      0.663400000000     0.866800000000     0.645000000000     0          
H30      H      0.668270000000     0.897920000000     0.591940000000     0          
C31      C      0.725700000000     0.773200000000     0.788900000000     0          
C32      C      0.790600000000     0.722400000000     0.866100000000     0          
H33      H      0.817930000000     0.704920000000     0.897270000000     0          
C34      C      0.759500000000     0.744700000000     0.903100000000     0          
C35      C      0.814200000000     0.660800000000     0.682800000000     0          
H36      H      0.783740000000     0.651040000000     0.661330000000     0          
C37      C      0.690700000000     0.797800000000     0.750200000000     0          
C38      C      0.695600000000     0.840400000000     0.685800000000     0          
H39      H      0.725170000000     0.853230000000     0.667120000000     0          
O40      O      0.946220000000     0.630800000000     0.636900000000     0          
H41      H      0.035750000000     0.591300000000     0.722870000000     0          
H42      H      0.034050000000     0.715400000000     0.601270000000     0          
Zr43     Zr     0.502320000000     0.095910000000     0.598220000000     0          
O44      O      0.400640000000     0.073700000000     0.573500000000     0          
O45      O      0.102700000000     0.428500000000     0.575000000000     0          
O46      O      0.467120000000     0.085500000000     0.506500000000     0          
O47      O      0.060710000000     0.370800000000     0.635700000000     0          
O48      O      0.504300000000     0.091300000000     0.719700000000     0          
O49      O      0.502600000000     0.215400000000     0.598100000000     0          
C50      C      0.094000000000     0.384000000000     0.622200000000     0          
C51      C      0.387600000000     0.183100000000     0.732800000000     0          
H52      H      0.417840000000     0.194180000000     0.754840000000     0          
C53      C      0.380900000000     0.143300000000     0.665000000000     0          
C54      C      0.410500000000     0.114400000000     0.621300000000     0          
C55      C      0.321500000000     0.199600000000     0.748300000000     0          
C56      C      0.126800000000     0.356100000000     0.667300000000     0          
C57      C      0.154200000000     0.283900000000     0.770300000000     0          
H58      H      0.150530000000     0.247690000000     0.820420000000     0          
N59      N      0.264200000000     0.238800000000     0.983500000000     0          
C60      C      0.123200000000     0.311800000000     0.732500000000     0          
H61      H      0.093970000000     0.299580000000     0.753250000000     0          
C62      C      0.359200000000     0.206700000000     0.769400000000     0          
H63      H      0.364710000000     0.236250000000     0.824190000000     0          
C64      C      0.256100000000     0.250600000000     0.753700000000     0          
H65      H      0.254150000000     0.256870000000     0.690960000000     0          
C66      C      0.225900000000     0.267800000000     0.867200000000     0          
H67      H      0.199380000000     0.282090000000     0.897380000000     0          
C68      C      0.343500000000     0.132700000000     0.641400000000     0          
H69      H      0.336340000000     0.101180000000     0.588370000000     0          
C70      C      0.288100000000     0.221500000000     0.788300000000     0          
C71      C      0.163400000000     0.366800000000     0.645000000000     0          
H72      H      0.168270000000     0.397920000000     0.591940000000     0          
C73      C      0.225700000000     0.273200000000     0.788900000000     0          
C74      C      0.290600000000     0.222400000000     0.866100000000     0          
H75      H      0.317930000000     0.204920000000     0.897270000000     0          
C76      C      0.259500000000     0.244700000000     0.903100000000     0          
C77      C      0.314200000000     0.160800000000     0.682800000000     0          
H78      H      0.283740000000     0.151040000000     0.661330000000     0          
C79      C      0.190700000000     0.297800000000     0.750200000000     0          
C80      C      0.195600000000     0.340400000000     0.685800000000     0          
H81      H      0.225170000000     0.353230000000     0.667120000000     0          
O82      O      0.446220000000     0.130800000000     0.636900000000     0          
H83      H      0.535750000000     0.091300000000     0.722870000000     0          
H84      H      0.534050000000     0.215400000000     0.601270000000     0          
Zr85     Zr     0.997680000000     0.595910000000     0.401780000000     0          
O86      O      0.099360000000     0.573700000000     0.426500000000     0          
O87      O      0.397300000000     0.928500000000     0.425000000000     0          
O88      O      0.032880000000     0.585500000000     0.493500000000     0          
O89      O      0.439290000000     0.870800000000     0.364300000000     0          
O90      O      0.995700000000     0.591300000000     0.280300000000     0          
O91      O      0.997400000000     0.715400000000     0.401900000000     0          
C92      C      0.406000000000     0.884000000000     0.377800000000     0          
C93      C      0.112400000000     0.683100000000     0.267200000000     0          
H94      H      0.082160000000     0.694180000000     0.245160000000     0          
C95      C      0.119100000000     0.643300000000     0.335000000000     0          
C96      C      0.089500000000     0.614400000000     0.378700000000     0          
C97      C      0.178500000000     0.699600000000     0.251700000000     0          
C98      C      0.373200000000     0.856100000000     0.332700000000     0          
C99      C      0.345800000000     0.783900000000     0.229700000000     0          
H100     H      0.349470000000     0.747690000000     0.179580000000     0          
N101     N      0.235800000000     0.738800000000     0.016500000000     0          
C102     C      0.376800000000     0.811800000000     0.267500000000     0          
H103     H      0.406030000000     0.799580000000     0.246750000000     0          
C104     C      0.140800000000     0.706700000000     0.230600000000     0          
H105     H      0.135290000000     0.736250000000     0.175810000000     0          
C106     C      0.243900000000     0.750600000000     0.246300000000     0          
H107     H      0.245850000000     0.756870000000     0.309040000000     0          
C108     C      0.274100000000     0.767800000000     0.132800000000     0          
H109     H      0.300620000000     0.782090000000     0.102620000000     0          
C110     C      0.156500000000     0.632700000000     0.358600000000     0          
H111     H      0.163660000000     0.601180000000     0.411630000000     0          
C112     C      0.211900000000     0.721500000000     0.211700000000     0          
C113     C      0.336600000000     0.866800000000     0.355000000000     0          
H114     H      0.331730000000     0.897920000000     0.408060000000     0          
C115     C      0.274300000000     0.773200000000     0.211100000000     0          
C116     C      0.209400000000     0.722400000000     0.133900000000     0          
H117     H      0.182070000000     0.704920000000     0.102730000000     0          
C118     C      0.240500000000     0.744700000000     0.096900000000     0          
C119     C      0.185800000000     0.660800000000     0.317200000000     0          
H120     H      0.216260000000     0.651040000000     0.338670000000     0          
C121     C      0.309300000000     0.797800000000     0.249800000000     0          
C122     C      0.304400000000     0.840400000000     0.314200000000     0          
H123     H      0.274830000000     0.853230000000     0.332880000000     0          
O124     O      0.053780000000     0.630800000000     0.363100000000     0          
H125     H      0.964250000000     0.591300000000     0.277130000000     0          
H126     H      0.965950000000     0.715400000000     0.398730000000     0          
Zr127    Zr     0.497680000000     0.095910000000     0.401780000000     0          
O128     O      0.599360000000     0.073700000000     0.426500000000     0          
O129     O      0.897300000000     0.428500000000     0.425000000000     0          
O130     O      0.532880000000     0.085500000000     0.493500000000     0          
O131     O      0.939290000000     0.370800000000     0.364300000000     0          
O132     O      0.495700000000     0.091300000000     0.280300000000     0          
O133     O      0.497400000000     0.215400000000     0.401900000000     0          
C134     C      0.906000000000     0.384000000000     0.377800000000     0          
C135     C      0.612400000000     0.183100000000     0.267200000000     0          
H136     H      0.582160000000     0.194180000000     0.245160000000     0          
C137     C      0.619100000000     0.143300000000     0.335000000000     0          
C138     C      0.589500000000     0.114400000000     0.378700000000     0          
C139     C      0.678500000000     0.199600000000     0.251700000000     0          
C140     C      0.873200000000     0.356100000000     0.332700000000     0          
C141     C      0.845800000000     0.283900000000     0.229700000000     0          
H142     H      0.849470000000     0.247690000000     0.179580000000     0          
N143     N      0.735800000000     0.238800000000     0.016500000000     0          
C144     C      0.876800000000     0.311800000000     0.267500000000     0          
H145     H      0.906030000000     0.299580000000     0.246750000000     0          
C146     C      0.640800000000     0.206700000000     0.230600000000     0          
H147     H      0.635290000000     0.236250000000     0.175810000000     0          
C148     C      0.743900000000     0.250600000000     0.246300000000     0          
H149     H      0.745850000000     0.256870000000     0.309040000000     0          
C150     C      0.774100000000     0.267800000000     0.132800000000     0          
H151     H      0.800620000000     0.282090000000     0.102620000000     0          
C152     C      0.656500000000     0.132700000000     0.358600000000     0          
H153     H      0.663660000000     0.101180000000     0.411630000000     0          
C154     C      0.711900000000     0.221500000000     0.211700000000     0          
C155     C      0.836600000000     0.366800000000     0.355000000000     0          
H156     H      0.831730000000     0.397920000000     0.408060000000     0          
C157     C      0.774300000000     0.273200000000     0.211100000000     0          
C158     C      0.709400000000     0.222400000000     0.133900000000     0          
H159     H      0.682070000000     0.204920000000     0.102730000000     0          
C160     C      0.740500000000     0.244700000000     0.096900000000     0          
C161     C      0.685800000000     0.160800000000     0.317200000000     0          
H162     H      0.716260000000     0.151040000000     0.338670000000     0          
C163     C      0.809300000000     0.297800000000     0.249800000000     0          
C164     C      0.804400000000     0.340400000000     0.314200000000     0          
H165     H      0.774830000000     0.353230000000     0.332880000000     0          
O166     O      0.553780000000     0.130800000000     0.363100000000     0          
H167     H      0.464250000000     0.091300000000     0.277130000000     0          
H168     H      0.465950000000     0.215400000000     0.398730000000     0          
Zr169    Zr     0.997680000000     0.404090000000     0.401780000000     0          
O170     O      0.099360000000     0.426300000000     0.426500000000     0          
O171     O      0.397300000000     0.071500000000     0.425000000000     0          
O172     O      0.032880000000     0.414500000000     0.493500000000     0          
O173     O      0.439290000000     0.129200000000     0.364300000000     0          
O174     O      0.995700000000     0.408700000000     0.280300000000     0          
O175     O      0.997400000000     0.284600000000     0.401900000000     0          
C176     C      0.406000000000     0.116000000000     0.377800000000     0          
C177     C      0.112400000000     0.316900000000     0.267200000000     0          
H178     H      0.082160000000     0.305820000000     0.245160000000     0          
C179     C      0.119100000000     0.356700000000     0.335000000000     0          
C180     C      0.089500000000     0.385600000000     0.378700000000     0          
C181     C      0.178500000000     0.300400000000     0.251700000000     0          
C182     C      0.373200000000     0.143900000000     0.332700000000     0          
C183     C      0.345800000000     0.216100000000     0.229700000000     0          
H184     H      0.349470000000     0.252310000000     0.179580000000     0          
N185     N      0.235800000000     0.261200000000     0.016500000000     0          
C186     C      0.376800000000     0.188200000000     0.267500000000     0          
H187     H      0.406030000000     0.200420000000     0.246750000000     0          
C188     C      0.140800000000     0.293300000000     0.230600000000     0          
H189     H      0.135290000000     0.263750000000     0.175810000000     0          
C190     C      0.243900000000     0.249400000000     0.246300000000     0          
H191     H      0.245850000000     0.243130000000     0.309040000000     0          
C192     C      0.274100000000     0.232200000000     0.132800000000     0          
H193     H      0.300620000000     0.217910000000     0.102620000000     0          
C194     C      0.156500000000     0.367300000000     0.358600000000     0          
H195     H      0.163660000000     0.398820000000     0.411630000000     0          
C196     C      0.211900000000     0.278500000000     0.211700000000     0          
C197     C      0.336600000000     0.133200000000     0.355000000000     0          
H198     H      0.331730000000     0.102080000000     0.408060000000     0          
C199     C      0.274300000000     0.226800000000     0.211100000000     0          
C200     C      0.209400000000     0.277600000000     0.133900000000     0          
H201     H      0.182070000000     0.295080000000     0.102730000000     0          
C202     C      0.240500000000     0.255300000000     0.096900000000     0          
C203     C      0.185800000000     0.339200000000     0.317200000000     0          
H204     H      0.216260000000     0.348960000000     0.338670000000     0          
C205     C      0.309300000000     0.202200000000     0.249800000000     0          
C206     C      0.304400000000     0.159600000000     0.314200000000     0          
H207     H      0.274830000000     0.146770000000     0.332880000000     0          
O208     O      0.053780000000     0.369200000000     0.363100000000     0          
H209     H      0.964250000000     0.408700000000     0.277130000000     0          
H210     H      0.965950000000     0.284600000000     0.398730000000     0          
Zr211    Zr     0.497680000000     0.904090000000     0.401780000000     0          
O212     O      0.599360000000     0.926300000000     0.426500000000     0          
O213     O      0.897300000000     0.571500000000     0.425000000000     0          
O214     O      0.532880000000     0.914500000000     0.493500000000     0          
O215     O      0.939290000000     0.629200000000     0.364300000000     0          
O216     O      0.495700000000     0.908700000000     0.280300000000     0          
O217     O      0.497400000000     0.784600000000     0.401900000000     0          
C218     C      0.906000000000     0.616000000000     0.377800000000     0          
C219     C      0.612400000000     0.816900000000     0.267200000000     0          
H220     H      0.582160000000     0.805820000000     0.245160000000     0          
C221     C      0.619100000000     0.856700000000     0.335000000000     0          
C222     C      0.589500000000     0.885600000000     0.378700000000     0          
C223     C      0.678500000000     0.800400000000     0.251700000000     0          
C224     C      0.873200000000     0.643900000000     0.332700000000     0          
C225     C      0.845800000000     0.716100000000     0.229700000000     0          
H226     H      0.849470000000     0.752310000000     0.179580000000     0          
N227     N      0.735800000000     0.761200000000     0.016500000000     0          
C228     C      0.876800000000     0.688200000000     0.267500000000     0          
H229     H      0.906030000000     0.700420000000     0.246750000000     0          
C230     C      0.640800000000     0.793300000000     0.230600000000     0          
H231     H      0.635290000000     0.763750000000     0.175810000000     0          
C232     C      0.743900000000     0.749400000000     0.246300000000     0          
H233     H      0.745850000000     0.743130000000     0.309040000000     0          
C234     C      0.774100000000     0.732200000000     0.132800000000     0          
H235     H      0.800620000000     0.717910000000     0.102620000000     0          
C236     C      0.656500000000     0.867300000000     0.358600000000     0          
H237     H      0.663660000000     0.898820000000     0.411630000000     0          
C238     C      0.711900000000     0.778500000000     0.211700000000     0          
C239     C      0.836600000000     0.633200000000     0.355000000000     0          
H240     H      0.831730000000     0.602080000000     0.408060000000     0          
C241     C      0.774300000000     0.726800000000     0.211100000000     0          
C242     C      0.709400000000     0.777600000000     0.133900000000     0          
H243     H      0.682070000000     0.795080000000     0.102730000000     0          
C244     C      0.740500000000     0.755300000000     0.096900000000     0          
C245     C      0.685800000000     0.839200000000     0.317200000000     0          
H246     H      0.716260000000     0.848960000000     0.338670000000     0          
C247     C      0.809300000000     0.702200000000     0.249800000000     0          
C248     C      0.804400000000     0.659600000000     0.314200000000     0          
H249     H      0.774830000000     0.646770000000     0.332880000000     0          
O250     O      0.553780000000     0.869200000000     0.363100000000     0          
H251     H      0.464250000000     0.908700000000     0.277130000000     0          
H252     H      0.465950000000     0.784600000000     0.398730000000     0          
Zr253    Zr     0.002320000000     0.404090000000     0.598220000000     0          
O254     O      0.900640000000     0.426300000000     0.573500000000     0          
O255     O      0.602700000000     0.071500000000     0.575000000000     0          
O256     O      0.967120000000     0.414500000000     0.506500000000     0          
O257     O      0.560710000000     0.129200000000     0.635700000000     0          
O258     O      0.004300000000     0.408700000000     0.719700000000     0          
O259     O      0.002600000000     0.284600000000     0.598100000000     0          
C260     C      0.594000000000     0.116000000000     0.622200000000     0          
C261     C      0.887600000000     0.316900000000     0.732800000000     0          
H262     H      0.917840000000     0.305820000000     0.754840000000     0          
C263     C      0.880900000000     0.356700000000     0.665000000000     0          
C264     C      0.910500000000     0.385600000000     0.621300000000     0          
C265     C      0.821500000000     0.300400000000     0.748300000000     0          
C266     C      0.626800000000     0.143900000000     0.667300000000     0          
C267     C      0.654200000000     0.216100000000     0.770300000000     0          
H268     H      0.650530000000     0.252310000000     0.820420000000     0          
N269     N      0.764200000000     0.261200000000     0.983500000000     0          
C270     C      0.623200000000     0.188200000000     0.732500000000     0          
H271     H      0.593970000000     0.200420000000     0.753250000000     0          
C272     C      0.859200000000     0.293300000000     0.769400000000     0          
H273     H      0.864710000000     0.263750000000     0.824190000000     0          
C274     C      0.756100000000     0.249400000000     0.753700000000     0          
H275     H      0.754150000000     0.243130000000     0.690960000000     0          
C276     C      0.725900000000     0.232200000000     0.867200000000     0          
H277     H      0.699380000000     0.217910000000     0.897380000000     0          
C278     C      0.843500000000     0.367300000000     0.641400000000     0          
H279     H      0.836340000000     0.398820000000     0.588370000000     0          
C280     C      0.788100000000     0.278500000000     0.788300000000     0          
C281     C      0.663400000000     0.133200000000     0.645000000000     0          
H282     H      0.668270000000     0.102080000000     0.591940000000     0          
C283     C      0.725700000000     0.226800000000     0.788900000000     0          
C284     C      0.790600000000     0.277600000000     0.866100000000     0          
H285     H      0.817930000000     0.295080000000     0.897270000000     0          
C286     C      0.759500000000     0.255300000000     0.903100000000     0          
C287     C      0.814200000000     0.339200000000     0.682800000000     0          
H288     H      0.783740000000     0.348960000000     0.661330000000     0          
C289     C      0.690700000000     0.202200000000     0.750200000000     0          
C290     C      0.695600000000     0.159600000000     0.685800000000     0          
H291     H      0.725170000000     0.146770000000     0.667120000000     0          
O292     O      0.946220000000     0.369200000000     0.636900000000     0          
H293     H      0.035750000000     0.408700000000     0.722870000000     0          
H294     H      0.034050000000     0.284600000000     0.601270000000     0          
Zr295    Zr     0.502320000000     0.904090000000     0.598220000000     0          
O296     O      0.400640000000     0.926300000000     0.573500000000     0          
O297     O      0.102700000000     0.571500000000     0.575000000000     0          
O298     O      0.467120000000     0.914500000000     0.506500000000     0          
O299     O      0.060710000000     0.629200000000     0.635700000000     0          
O300     O      0.504300000000     0.908700000000     0.719700000000     0          
O301     O      0.502600000000     0.784600000000     0.598100000000     0          
C302     C      0.094000000000     0.616000000000     0.622200000000     0          
C303     C      0.387600000000     0.816900000000     0.732800000000     0          
H304     H      0.417840000000     0.805820000000     0.754840000000     0          
C305     C      0.380900000000     0.856700000000     0.665000000000     0          
C306     C      0.410500000000     0.885600000000     0.621300000000     0          
C307     C      0.321500000000     0.800400000000     0.748300000000     0          
C308     C      0.126800000000     0.643900000000     0.667300000000     0          
C309     C      0.154200000000     0.716100000000     0.770300000000     0          
H310     H      0.150530000000     0.752310000000     0.820420000000     0          
N311     N      0.264200000000     0.761200000000     0.983500000000     0          
C312     C      0.123200000000     0.688200000000     0.732500000000     0          
H313     H      0.093970000000     0.700420000000     0.753250000000     0          
C314     C      0.359200000000     0.793300000000     0.769400000000     0          
H315     H      0.364710000000     0.763750000000     0.824190000000     0          
C316     C      0.256100000000     0.749400000000     0.753700000000     0          
H317     H      0.254150000000     0.743130000000     0.690960000000     0          
C318     C      0.225900000000     0.732200000000     0.867200000000     0          
H319     H      0.199380000000     0.717910000000     0.897380000000     0          
C320     C      0.343500000000     0.867300000000     0.641400000000     0          
H321     H      0.336340000000     0.898820000000     0.588370000000     0          
C322     C      0.288100000000     0.778500000000     0.788300000000     0          
C323     C      0.163400000000     0.633200000000     0.645000000000     0          
H324     H      0.168270000000     0.602080000000     0.591940000000     0          
C325     C      0.225700000000     0.726800000000     0.788900000000     0          
C326     C      0.290600000000     0.777600000000     0.866100000000     0          
H327     H      0.317930000000     0.795080000000     0.897270000000     0          
C328     C      0.259500000000     0.755300000000     0.903100000000     0          
C329     C      0.314200000000     0.839200000000     0.682800000000     0          
H330     H      0.283740000000     0.848960000000     0.661330000000     0          
C331     C      0.190700000000     0.702200000000     0.750200000000     0          
C332     C      0.195600000000     0.659600000000     0.685800000000     0          
H333     H      0.225170000000     0.646770000000     0.667120000000     0          
O334     O      0.446220000000     0.869200000000     0.636900000000     0          
H335     H      0.535750000000     0.908700000000     0.722870000000     0          
H336     H      0.534050000000     0.784600000000     0.601270000000     0          
Zr337    Zr     0.568970000000     0.000000000000     0.500670000000     0          
Zr338    Zr     0.068970000000     0.500000000000     0.500670000000     0          
Zr339    Zr     0.431030000000     0.000000000000     0.499330000000     0          
Zr340    Zr     0.931030000000     0.500000000000     0.499330000000     0          
O341     O      0.971400000000     0.500000000000     0.598300000000     0          
O342     O      0.034800000000     0.500000000000     0.600400000000     0          
O343     O      0.471400000000     0.000000000000     0.598300000000     0          
O344     O      0.534800000000     0.000000000000     0.600400000000     0          
O345     O      0.028600000000     0.500000000000     0.401700000000     0          
O346     O      0.965200000000     0.500000000000     0.399600000000     0          
O347     O      0.528600000000     0.000000000000     0.401700000000     0          
O348     O      0.465200000000     0.000000000000     0.399600000000     0          


