data_WEYREA

_audit_creation_method RASPA-1.0
_audit_creation_date 2020-11-2
_audit_author_name 'Rocio Bueno-Perez'

_cell_length_a    21.0704
_cell_length_b    21.0704
_cell_length_c    40.3672
_cell_angle_alpha 90
_cell_angle_beta  90
_cell_angle_gamma 90
_cell_volume      17921.5

_symmetry_cell_setting          triclinic
_symmetry_space_group_name_Hall 'P 1'
_symmetry_space_group_name_H-M  'P 1'
_symmetry_Int_Tables_number     1

_symmetry_equiv_pos_as_xyz 'x,y,z'

loop_
_atom_site_label
_atom_site_type_symbol
_atom_site_fract_x
_atom_site_fract_y
_atom_site_fract_z
_atom_site_charge
C1       C      0.109200000000     0.450400000000     0.320730000000     0          
H2       H      0.110900000000     0.417700000000     0.336200000000     0          
C3       C      0.156000000000     0.538400000000     0.295140000000     0          
H4       H      0.189600000000     0.566600000000     0.292500000000     0          
C5       C      0.107500000000     0.540700000000     0.271990000000     0          
H6       H      0.108800000000     0.571000000000     0.255300000000     0          
C7       C      0.061400000000     0.453500000000     0.298400000000     0          
H8       H      0.028900000000     0.423700000000     0.299700000000     0          
C9       C      0.950400000000     0.390800000000     0.820730000000     0          
H10      H      0.917700000000     0.389100000000     0.836200000000     0          
C11      C      0.038400000000     0.344000000000     0.795140000000     0          
H12      H      0.066600000000     0.310400000000     0.792500000000     0          
C13      C      0.040700000000     0.392500000000     0.771990000000     0          
H14      H      0.071000000000     0.391200000000     0.755300000000     0          
C15      C      0.953500000000     0.438600000000     0.798400000000     0          
H16      H      0.923700000000     0.471100000000     0.799700000000     0          
C17      C      0.950400000000     0.609200000000     0.179270000000     0          
H18      H      0.917700000000     0.610900000000     0.163800000000     0          
C19      C      0.038400000000     0.656000000000     0.204860000000     0          
H20      H      0.066600000000     0.689600000000     0.207500000000     0          
C21      C      0.040700000000     0.607500000000     0.228010000000     0          
H22      H      0.071000000000     0.608800000000     0.244700000000     0          
C23      C      0.953500000000     0.561400000000     0.201600000000     0          
H24      H      0.923700000000     0.528900000000     0.200300000000     0          
C25      C      0.109200000000     0.450400000000     0.679270000000     0          
H26      H      0.110900000000     0.417700000000     0.663800000000     0          
C27      C      0.156000000000     0.538400000000     0.704860000000     0          
H28      H      0.189600000000     0.566600000000     0.707500000000     0          
C29      C      0.107500000000     0.540700000000     0.728010000000     0          
H30      H      0.108800000000     0.571000000000     0.744700000000     0          
C31      C      0.061400000000     0.453500000000     0.701600000000     0          
H32      H      0.028900000000     0.423700000000     0.700300000000     0          
C33      C      0.609200000000     0.950400000000     0.179270000000     0          
H34      H      0.610900000000     0.917700000000     0.163800000000     0          
C35      C      0.656000000000     0.038400000000     0.204860000000     0          
H36      H      0.689600000000     0.066600000000     0.207500000000     0          
C37      C      0.607500000000     0.040700000000     0.228010000000     0          
H38      H      0.608800000000     0.071000000000     0.244700000000     0          
C39      C      0.561400000000     0.953500000000     0.201600000000     0          
H40      H      0.528900000000     0.923700000000     0.200300000000     0          
C41      C      0.890800000000     0.549600000000     0.679270000000     0          
H42      H      0.889100000000     0.582300000000     0.663800000000     0          
C43      C      0.844000000000     0.461600000000     0.704860000000     0          
H44      H      0.810400000000     0.433400000000     0.707500000000     0          
C45      C      0.892500000000     0.459300000000     0.728010000000     0          
H46      H      0.891200000000     0.429000000000     0.744700000000     0          
C47      C      0.938600000000     0.546500000000     0.701600000000     0          
H48      H      0.971100000000     0.576300000000     0.700300000000     0          
C49      C      0.390800000000     0.049600000000     0.179270000000     0          
H50      H      0.389100000000     0.082300000000     0.163800000000     0          
C51      C      0.344000000000     0.961600000000     0.204860000000     0          
H52      H      0.310400000000     0.933400000000     0.207500000000     0          
C53      C      0.392500000000     0.959300000000     0.228010000000     0          
H54      H      0.391200000000     0.929000000000     0.244700000000     0          
C55      C      0.438600000000     0.046500000000     0.201600000000     0          
H56      H      0.471100000000     0.076300000000     0.200300000000     0          
C57      C      0.549600000000     0.109200000000     0.679270000000     0          
H58      H      0.582300000000     0.110900000000     0.663800000000     0          
C59      C      0.461600000000     0.156000000000     0.704860000000     0          
H60      H      0.433400000000     0.189600000000     0.707500000000     0          
C61      C      0.459300000000     0.107500000000     0.728010000000     0          
H62      H      0.429000000000     0.108800000000     0.744700000000     0          
C63      C      0.546500000000     0.061400000000     0.701600000000     0          
H64      H      0.576300000000     0.028900000000     0.700300000000     0          
C65      C      0.450400000000     0.890800000000     0.679270000000     0          
H66      H      0.417700000000     0.889100000000     0.663800000000     0          
C67      C      0.538400000000     0.844000000000     0.704860000000     0          
H68      H      0.566600000000     0.810400000000     0.707500000000     0          
C69      C      0.540700000000     0.892500000000     0.728010000000     0          
C70      C      0.453500000000     0.938600000000     0.701600000000     0          
H71      H      0.423700000000     0.971100000000     0.700300000000     0          
C72      C      0.950400000000     0.390800000000     0.179270000000     0          
H73      H      0.917700000000     0.389100000000     0.163800000000     0          
C74      C      0.038400000000     0.344000000000     0.204860000000     0          
H75      H      0.066600000000     0.310400000000     0.207500000000     0          
C76      C      0.040700000000     0.392500000000     0.228010000000     0          
H77      H      0.071000000000     0.391200000000     0.244700000000     0          
C78      C      0.953500000000     0.438600000000     0.201600000000     0          
H79      H      0.923700000000     0.471100000000     0.200300000000     0          
C80      C      0.890800000000     0.450400000000     0.320730000000     0          
H81      H      0.889100000000     0.417700000000     0.336200000000     0          
C82      C      0.844000000000     0.538400000000     0.295140000000     0          
H83      H      0.810400000000     0.566600000000     0.292500000000     0          
C84      C      0.892500000000     0.540700000000     0.271990000000     0          
H85      H      0.891200000000     0.571000000000     0.255300000000     0          
C86      C      0.938600000000     0.453500000000     0.298400000000     0          
H87      H      0.971100000000     0.423700000000     0.299700000000     0          
C88      C      0.390800000000     0.950400000000     0.820730000000     0          
H89      H      0.389100000000     0.917700000000     0.836200000000     0          
C90      C      0.344000000000     0.038400000000     0.795140000000     0          
H91      H      0.310400000000     0.066600000000     0.792500000000     0          
C92      C      0.392500000000     0.040700000000     0.771990000000     0          
H93      H      0.391200000000     0.071000000000     0.755300000000     0          
C94      C      0.438600000000     0.953500000000     0.798400000000     0          
H95      H      0.471100000000     0.923700000000     0.799700000000     0          
C96      C      0.609200000000     0.049600000000     0.820730000000     0          
H97      H      0.610900000000     0.082300000000     0.836200000000     0          
C98      C      0.656000000000     0.961600000000     0.795140000000     0          
H99      H      0.689600000000     0.933400000000     0.792500000000     0          
C100     C      0.607500000000     0.959300000000     0.771990000000     0          
H101     H      0.608800000000     0.929000000000     0.755300000000     0          
C102     C      0.561400000000     0.046500000000     0.798400000000     0          
H103     H      0.528900000000     0.076300000000     0.799700000000     0          
C104     C      0.450400000000     0.109200000000     0.320730000000     0          
H105     H      0.417700000000     0.110900000000     0.336200000000     0          
C106     C      0.538400000000     0.156000000000     0.295140000000     0          
H107     H      0.566600000000     0.189600000000     0.292500000000     0          
C108     C      0.540700000000     0.107500000000     0.271990000000     0          
H109     H      0.571000000000     0.108800000000     0.255300000000     0          
C110     C      0.453500000000     0.061400000000     0.298400000000     0          
H111     H      0.423700000000     0.028900000000     0.299700000000     0          
C112     C      0.950400000000     0.609200000000     0.820730000000     0          
H113     H      0.917700000000     0.610900000000     0.836200000000     0          
C114     C      0.038400000000     0.656000000000     0.795140000000     0          
H115     H      0.066600000000     0.689600000000     0.792500000000     0          
C116     C      0.040700000000     0.607500000000     0.771990000000     0          
H117     H      0.071000000000     0.608800000000     0.755300000000     0          
C118     C      0.953500000000     0.561400000000     0.798400000000     0          
H119     H      0.923700000000     0.528900000000     0.799700000000     0          
C120     C      0.549600000000     0.890800000000     0.320730000000     0          
H121     H      0.582300000000     0.889100000000     0.336200000000     0          
C122     C      0.461600000000     0.844000000000     0.295140000000     0          
H123     H      0.433400000000     0.810400000000     0.292500000000     0          
C124     C      0.459300000000     0.892500000000     0.271990000000     0          
H125     H      0.429000000000     0.891200000000     0.255300000000     0          
C126     C      0.546500000000     0.938600000000     0.298400000000     0          
H127     H      0.576300000000     0.971100000000     0.299700000000     0          
Zr128    Zr     0.500000000000     0.500000000000     0.438720000000     0          
Zr129    Zr     0.000000000000     0.000000000000     0.938720000000     0          
Zr130    Zr     0.500000000000     0.500000000000     0.561280000000     0          
Zr131    Zr     0.000000000000     0.000000000000     0.061280000000     0          
Zr132    Zr     0.617910000000     0.500000000000     0.500000000000     0          
Zr133    Zr     0.117910000000     0.000000000000     0.000000000000     0          
Zr134    Zr     0.382090000000     0.500000000000     0.500000000000     0          
Zr135    Zr     0.882090000000     0.000000000000     0.000000000000     0          
Zr136    Zr     0.500000000000     0.617910000000     0.500000000000     0          
Zr137    Zr     0.000000000000     0.117910000000     0.000000000000     0          
Zr138    Zr     0.500000000000     0.382090000000     0.500000000000     0          
Zr139    Zr     0.000000000000     0.882090000000     0.000000000000     0          
O140     O      0.589840000000     0.500000000000     0.411100000000     0          
O141     O      0.666130000000     0.500000000000     0.450120000000     0          
C142     C      0.647400000000     0.500000000000     0.420160000000     0          
C143     C      0.696700000000     0.500000000000     0.394660000000     0          
C144     C      0.682400000000     0.500000000000     0.361370000000     0          
H145     H      0.639900000000     0.500000000000     0.355000000000     0          
C146     C      0.790800000000     0.500000000000     0.345650000000     0          
C147     C      0.727500000000     0.500000000000     0.337630000000     0          
H148     H      0.715500000000     0.500000000000     0.315500000000     0          
C149     C      0.758400000000     0.500000000000     0.402290000000     0          
H150     H      0.769500000000     0.500000000000     0.424600000000     0          
C151     C      0.807200000000     0.500000000000     0.378860000000     0          
H152     H      0.849500000000     0.500000000000     0.385400000000     0          
C153     C      0.841800000000     0.500000000000     0.319960000000     0          
C154     C      0.941400000000     0.500000000000     0.273190000000     0          
O155     O      0.089840000000     0.000000000000     0.911100000000     0          
O156     O      0.166130000000     0.000000000000     0.950120000000     0          
C157     C      0.147400000000     0.000000000000     0.920160000000     0          
C158     C      0.196700000000     0.000000000000     0.894660000000     0          
C159     C      0.182400000000     0.000000000000     0.861370000000     0          
H160     H      0.139900000000     0.000000000000     0.855000000000     0          
C161     C      0.290800000000     0.000000000000     0.845650000000     0          
C162     C      0.227500000000     0.000000000000     0.837630000000     0          
H163     H      0.215500000000     0.000000000000     0.815500000000     0          
C164     C      0.258400000000     0.000000000000     0.902290000000     0          
H165     H      0.269500000000     0.000000000000     0.924600000000     0          
C166     C      0.307200000000     0.000000000000     0.878860000000     0          
H167     H      0.349500000000     0.000000000000     0.885400000000     0          
C168     C      0.341800000000     0.000000000000     0.819960000000     0          
C169     C      0.441400000000     0.000000000000     0.773190000000     0          
O170     O      0.410160000000     0.500000000000     0.411100000000     0          
O171     O      0.333870000000     0.500000000000     0.450120000000     0          
C172     C      0.352600000000     0.500000000000     0.420160000000     0          
C173     C      0.303300000000     0.500000000000     0.394660000000     0          
C174     C      0.317600000000     0.500000000000     0.361370000000     0          
H175     H      0.360100000000     0.500000000000     0.355000000000     0          
C176     C      0.209200000000     0.500000000000     0.345650000000     0          
C177     C      0.272500000000     0.500000000000     0.337630000000     0          
H178     H      0.284500000000     0.500000000000     0.315500000000     0          
C179     C      0.241600000000     0.500000000000     0.402290000000     0          
H180     H      0.230500000000     0.500000000000     0.424600000000     0          
C181     C      0.192800000000     0.500000000000     0.378860000000     0          
H182     H      0.150500000000     0.500000000000     0.385400000000     0          
C183     C      0.158200000000     0.500000000000     0.319960000000     0          
C184     C      0.058600000000     0.500000000000     0.273190000000     0          
O185     O      0.910160000000     0.000000000000     0.911100000000     0          
O186     O      0.833870000000     0.000000000000     0.950120000000     0          
C187     C      0.852600000000     0.000000000000     0.920160000000     0          
C188     C      0.803300000000     0.000000000000     0.894660000000     0          
C189     C      0.817600000000     0.000000000000     0.861370000000     0          
H190     H      0.860100000000     0.000000000000     0.855000000000     0          
C191     C      0.709200000000     0.000000000000     0.845650000000     0          
C192     C      0.772500000000     0.000000000000     0.837630000000     0          
H193     H      0.784500000000     0.000000000000     0.815500000000     0          
C194     C      0.741600000000     0.000000000000     0.902290000000     0          
H195     H      0.730500000000     0.000000000000     0.924600000000     0          
C196     C      0.692800000000     0.000000000000     0.878860000000     0          
H197     H      0.650500000000     0.000000000000     0.885400000000     0          
C198     C      0.658200000000     0.000000000000     0.819960000000     0          
C199     C      0.558600000000     0.000000000000     0.773190000000     0          
O200     O      0.500000000000     0.589840000000     0.411100000000     0          
O201     O      0.500000000000     0.666130000000     0.450120000000     0          
C202     C      0.500000000000     0.647400000000     0.420160000000     0          
C203     C      0.500000000000     0.696700000000     0.394660000000     0          
C204     C      0.500000000000     0.682400000000     0.361370000000     0          
H205     H      0.500000000000     0.639900000000     0.355000000000     0          
C206     C      0.500000000000     0.790800000000     0.345650000000     0          
C207     C      0.500000000000     0.727500000000     0.337630000000     0          
H208     H      0.500000000000     0.715500000000     0.315500000000     0          
C209     C      0.500000000000     0.758400000000     0.402290000000     0          
H210     H      0.500000000000     0.769500000000     0.424600000000     0          
C211     C      0.500000000000     0.807200000000     0.378860000000     0          
H212     H      0.500000000000     0.849500000000     0.385400000000     0          
C213     C      0.500000000000     0.841800000000     0.319960000000     0          
C214     C      0.500000000000     0.941400000000     0.273190000000     0          
O215     O      0.000000000000     0.089840000000     0.911100000000     0          
O216     O      0.000000000000     0.166130000000     0.950120000000     0          
C217     C      0.000000000000     0.147400000000     0.920160000000     0          
C218     C      0.000000000000     0.196700000000     0.894660000000     0          
C219     C      0.000000000000     0.182400000000     0.861370000000     0          
H220     H      0.000000000000     0.139900000000     0.855000000000     0          
C221     C      0.000000000000     0.290800000000     0.845650000000     0          
C222     C      0.000000000000     0.227500000000     0.837630000000     0          
H223     H      0.000000000000     0.215500000000     0.815500000000     0          
C224     C      0.000000000000     0.258400000000     0.902290000000     0          
H225     H      0.000000000000     0.269500000000     0.924600000000     0          
C226     C      0.000000000000     0.307200000000     0.878860000000     0          
H227     H      0.000000000000     0.349500000000     0.885400000000     0          
C228     C      0.000000000000     0.341800000000     0.819960000000     0          
C229     C      0.000000000000     0.441400000000     0.773190000000     0          
O230     O      0.500000000000     0.410160000000     0.411100000000     0          
O231     O      0.500000000000     0.333870000000     0.450120000000     0          
C232     C      0.500000000000     0.352600000000     0.420160000000     0          
C233     C      0.500000000000     0.303300000000     0.394660000000     0          
C234     C      0.500000000000     0.317600000000     0.361370000000     0          
H235     H      0.500000000000     0.360100000000     0.355000000000     0          
C236     C      0.500000000000     0.209200000000     0.345650000000     0          
C237     C      0.500000000000     0.272500000000     0.337630000000     0          
H238     H      0.500000000000     0.284500000000     0.315500000000     0          
C239     C      0.500000000000     0.241600000000     0.402290000000     0          
H240     H      0.500000000000     0.230500000000     0.424600000000     0          
C241     C      0.500000000000     0.192800000000     0.378860000000     0          
H242     H      0.500000000000     0.150500000000     0.385400000000     0          
C243     C      0.500000000000     0.158200000000     0.319960000000     0          
C244     C      0.500000000000     0.058600000000     0.273190000000     0          
O245     O      0.000000000000     0.910160000000     0.911100000000     0          
O246     O      0.000000000000     0.833870000000     0.950120000000     0          
C247     C      0.000000000000     0.852600000000     0.920160000000     0          
C248     C      0.000000000000     0.803300000000     0.894660000000     0          
C249     C      0.000000000000     0.817600000000     0.861370000000     0          
H250     H      0.000000000000     0.860100000000     0.855000000000     0          
C251     C      0.000000000000     0.709200000000     0.845650000000     0          
C252     C      0.000000000000     0.772500000000     0.837630000000     0          
H253     H      0.000000000000     0.784500000000     0.815500000000     0          
C254     C      0.000000000000     0.741600000000     0.902290000000     0          
H255     H      0.000000000000     0.730500000000     0.924600000000     0          
C256     C      0.000000000000     0.692800000000     0.878860000000     0          
H257     H      0.000000000000     0.650500000000     0.885400000000     0          
C258     C      0.000000000000     0.658200000000     0.819960000000     0          
C259     C      0.000000000000     0.558600000000     0.773190000000     0          
O260     O      0.410160000000     0.500000000000     0.588900000000     0          
O261     O      0.333870000000     0.500000000000     0.549880000000     0          
C262     C      0.352600000000     0.500000000000     0.579840000000     0          
C263     C      0.303300000000     0.500000000000     0.605340000000     0          
C264     C      0.317600000000     0.500000000000     0.638630000000     0          
H265     H      0.360100000000     0.500000000000     0.645000000000     0          
C266     C      0.209200000000     0.500000000000     0.654350000000     0          
C267     C      0.272500000000     0.500000000000     0.662370000000     0          
H268     H      0.284500000000     0.500000000000     0.684500000000     0          
C269     C      0.241600000000     0.500000000000     0.597710000000     0          
H270     H      0.230500000000     0.500000000000     0.575400000000     0          
C271     C      0.192800000000     0.500000000000     0.621140000000     0          
H272     H      0.150500000000     0.500000000000     0.614600000000     0          
C273     C      0.158200000000     0.500000000000     0.680040000000     0          
C274     C      0.058600000000     0.500000000000     0.726810000000     0          
O275     O      0.910160000000     0.000000000000     0.088900000000     0          
O276     O      0.833870000000     0.000000000000     0.049880000000     0          
C277     C      0.852600000000     0.000000000000     0.079840000000     0          
C278     C      0.803300000000     0.000000000000     0.105340000000     0          
C279     C      0.817600000000     0.000000000000     0.138630000000     0          
H280     H      0.860100000000     0.000000000000     0.145000000000     0          
C281     C      0.709200000000     0.000000000000     0.154350000000     0          
C282     C      0.772500000000     0.000000000000     0.162370000000     0          
H283     H      0.784500000000     0.000000000000     0.184500000000     0          
C284     C      0.741600000000     0.000000000000     0.097710000000     0          
H285     H      0.730500000000     0.000000000000     0.075400000000     0          
C286     C      0.692800000000     0.000000000000     0.121140000000     0          
H287     H      0.650500000000     0.000000000000     0.114600000000     0          
C288     C      0.658200000000     0.000000000000     0.180040000000     0          
C289     C      0.558600000000     0.000000000000     0.226810000000     0          
O290     O      0.589840000000     0.500000000000     0.588900000000     0          
O291     O      0.666130000000     0.500000000000     0.549880000000     0          
C292     C      0.647400000000     0.500000000000     0.579840000000     0          
C293     C      0.696700000000     0.500000000000     0.605340000000     0          
C294     C      0.682400000000     0.500000000000     0.638630000000     0          
H295     H      0.639900000000     0.500000000000     0.645000000000     0          
C296     C      0.790800000000     0.500000000000     0.654350000000     0          
C297     C      0.727500000000     0.500000000000     0.662370000000     0          
H298     H      0.715500000000     0.500000000000     0.684500000000     0          
C299     C      0.758400000000     0.500000000000     0.597710000000     0          
H300     H      0.769500000000     0.500000000000     0.575400000000     0          
C301     C      0.807200000000     0.500000000000     0.621140000000     0          
H302     H      0.849500000000     0.500000000000     0.614600000000     0          
C303     C      0.841800000000     0.500000000000     0.680040000000     0          
C304     C      0.941400000000     0.500000000000     0.726810000000     0          
O305     O      0.089840000000     0.000000000000     0.088900000000     0          
O306     O      0.166130000000     0.000000000000     0.049880000000     0          
C307     C      0.147400000000     0.000000000000     0.079840000000     0          
C308     C      0.196700000000     0.000000000000     0.105340000000     0          
C309     C      0.182400000000     0.000000000000     0.138630000000     0          
H310     H      0.139900000000     0.000000000000     0.145000000000     0          
C311     C      0.290800000000     0.000000000000     0.154350000000     0          
C312     C      0.227500000000     0.000000000000     0.162370000000     0          
H313     H      0.215500000000     0.000000000000     0.184500000000     0          
C314     C      0.258400000000     0.000000000000     0.097710000000     0          
H315     H      0.269500000000     0.000000000000     0.075400000000     0          
C316     C      0.307200000000     0.000000000000     0.121140000000     0          
H317     H      0.349500000000     0.000000000000     0.114600000000     0          
C318     C      0.341800000000     0.000000000000     0.180040000000     0          
C319     C      0.441400000000     0.000000000000     0.226810000000     0          
O320     O      0.500000000000     0.589840000000     0.588900000000     0          
O321     O      0.500000000000     0.666130000000     0.549880000000     0          
C322     C      0.500000000000     0.647400000000     0.579840000000     0          
C323     C      0.500000000000     0.696700000000     0.605340000000     0          
C324     C      0.500000000000     0.682400000000     0.638630000000     0          
H325     H      0.500000000000     0.639900000000     0.645000000000     0          
C326     C      0.500000000000     0.790800000000     0.654350000000     0          
C327     C      0.500000000000     0.727500000000     0.662370000000     0          
H328     H      0.500000000000     0.715500000000     0.684500000000     0          
C329     C      0.500000000000     0.758400000000     0.597710000000     0          
H330     H      0.500000000000     0.769500000000     0.575400000000     0          
C331     C      0.500000000000     0.807200000000     0.621140000000     0          
H332     H      0.500000000000     0.849500000000     0.614600000000     0          
C333     C      0.500000000000     0.841800000000     0.680040000000     0          
C334     C      0.500000000000     0.941400000000     0.726810000000     0          
O335     O      0.000000000000     0.089840000000     0.088900000000     0          
O336     O      0.000000000000     0.166130000000     0.049880000000     0          
C337     C      0.000000000000     0.147400000000     0.079840000000     0          
C338     C      0.000000000000     0.196700000000     0.105340000000     0          
C339     C      0.000000000000     0.182400000000     0.138630000000     0          
H340     H      0.000000000000     0.139900000000     0.145000000000     0          
C341     C      0.000000000000     0.290800000000     0.154350000000     0          
C342     C      0.000000000000     0.227500000000     0.162370000000     0          
H343     H      0.000000000000     0.215500000000     0.184500000000     0          
C344     C      0.000000000000     0.258400000000     0.097710000000     0          
H345     H      0.000000000000     0.269500000000     0.075400000000     0          
C346     C      0.000000000000     0.307200000000     0.121140000000     0          
H347     H      0.000000000000     0.349500000000     0.114600000000     0          
C348     C      0.000000000000     0.341800000000     0.180040000000     0          
C349     C      0.000000000000     0.441400000000     0.226810000000     0          
O350     O      0.500000000000     0.410160000000     0.588900000000     0          
O351     O      0.500000000000     0.333870000000     0.549880000000     0          
C352     C      0.500000000000     0.352600000000     0.579840000000     0          
C353     C      0.500000000000     0.303300000000     0.605340000000     0          
C354     C      0.500000000000     0.317600000000     0.638630000000     0          
H355     H      0.500000000000     0.360100000000     0.645000000000     0          
C356     C      0.500000000000     0.209200000000     0.654350000000     0          
C357     C      0.500000000000     0.272500000000     0.662370000000     0          
H358     H      0.500000000000     0.284500000000     0.684500000000     0          
C359     C      0.500000000000     0.241600000000     0.597710000000     0          
H360     H      0.500000000000     0.230500000000     0.575400000000     0          
C361     C      0.500000000000     0.192800000000     0.621140000000     0          
H362     H      0.500000000000     0.150500000000     0.614600000000     0          
C363     C      0.500000000000     0.158200000000     0.680040000000     0          
C364     C      0.500000000000     0.058600000000     0.726810000000     0          
O365     O      0.000000000000     0.910160000000     0.088900000000     0          
O366     O      0.000000000000     0.833870000000     0.049880000000     0          
C367     C      0.000000000000     0.852600000000     0.079840000000     0          
C368     C      0.000000000000     0.803300000000     0.105340000000     0          
C369     C      0.000000000000     0.817600000000     0.138630000000     0          
H370     H      0.000000000000     0.860100000000     0.145000000000     0          
C371     C      0.000000000000     0.709200000000     0.154350000000     0          
C372     C      0.000000000000     0.772500000000     0.162370000000     0          
H373     H      0.000000000000     0.784500000000     0.184500000000     0          
C374     C      0.000000000000     0.741600000000     0.097710000000     0          
H375     H      0.000000000000     0.730500000000     0.075400000000     0          
C376     C      0.000000000000     0.692800000000     0.121140000000     0          
H377     H      0.000000000000     0.650500000000     0.114600000000     0          
C378     C      0.000000000000     0.658200000000     0.180040000000     0          
C379     C      0.000000000000     0.558600000000     0.226810000000     0          
O380     O      0.441990000000     0.558010000000     0.470290000000     0          
O381     O      0.941990000000     0.058010000000     0.970290000000     0          
O382     O      0.558010000000     0.441990000000     0.470290000000     0          
O383     O      0.058010000000     0.941990000000     0.970290000000     0          
O384     O      0.441990000000     0.441990000000     0.470290000000     0          
O385     O      0.941990000000     0.941990000000     0.970290000000     0          
O386     O      0.558010000000     0.558010000000     0.470290000000     0          
O387     O      0.058010000000     0.058010000000     0.970290000000     0          
O388     O      0.558010000000     0.558010000000     0.529710000000     0          
O389     O      0.058010000000     0.058010000000     0.029710000000     0          
O390     O      0.441990000000     0.441990000000     0.529710000000     0          
O391     O      0.941990000000     0.941990000000     0.029710000000     0          
O392     O      0.558010000000     0.441990000000     0.529710000000     0          
O393     O      0.058010000000     0.941990000000     0.029710000000     0          
O394     O      0.441990000000     0.558010000000     0.529710000000     0          
O395     O      0.941990000000     0.058010000000     0.029710000000     0          
C396     C      0.000000000000     0.500000000000     0.250000000000     0          
C397     C      0.500000000000     0.000000000000     0.250000000000     0          
C398     C      0.000000000000     0.500000000000     0.750000000000     0          
C399     C      0.500000000000     0.000000000000     0.750000000000     0          


