data_WEYRIE

_audit_creation_method RASPA-1.0
_audit_creation_date 2020-11-2
_audit_author_name 'Rocio Bueno-Perez'

_cell_length_a    20.3794
_cell_length_b    20.3794
_cell_length_c    41.459
_cell_angle_alpha 90
_cell_angle_beta  90
_cell_angle_gamma 90
_cell_volume      17218.7

_symmetry_cell_setting          triclinic
_symmetry_space_group_name_Hall 'P 1'
_symmetry_space_group_name_H-M  'P 1'
_symmetry_Int_Tables_number     1

_symmetry_equiv_pos_as_xyz 'x,y,z'

loop_
_atom_site_label
_atom_site_type_symbol
_atom_site_fract_x
_atom_site_fract_y
_atom_site_fract_z
_atom_site_charge
C1       C      0.475000000000     0.301800000000     0.396000000000     0          
C2       C      0.462500000000     0.236300000000     0.402900000000     0          
H3       H      0.455400000000     0.223100000000     0.424100000000     0          
C4       C      0.460600000000     0.190400000000     0.378100000000     0          
H5       H      0.452200000000     0.146500000000     0.382700000000     0          
C6       C      0.471200000000     0.210000000000     0.346400000000     0          
C7       C      0.483700000000     0.275600000000     0.339500000000     0          
H8       H      0.490800000000     0.288700000000     0.318300000000     0          
C9       C      0.486000000000     0.321500000000     0.364300000000     0          
H10      H      0.494000000000     0.365300000000     0.359700000000     0          
C11      C      0.556100000000     0.121300000000     0.313500000000     0          
H12      H      0.593600000000     0.129400000000     0.325600000000     0          
C13      C      0.555900000000     0.075000000000     0.290100000000     0          
H14      H      0.044770000000     0.601930000000     0.285280000000     0          
C15      C      0.975000000000     0.801800000000     0.896000000000     0          
C16      C      0.962500000000     0.736300000000     0.902900000000     0          
H17      H      0.955400000000     0.723100000000     0.924100000000     0          
C18      C      0.960600000000     0.690400000000     0.878100000000     0          
H19      H      0.952200000000     0.646500000000     0.882700000000     0          
C20      C      0.971200000000     0.710000000000     0.846400000000     0          
C21      C      0.983700000000     0.775600000000     0.839500000000     0          
H22      H      0.990800000000     0.788700000000     0.818300000000     0          
C23      C      0.986000000000     0.821500000000     0.864300000000     0          
H24      H      0.994000000000     0.865300000000     0.859700000000     0          
C25      C      0.056100000000     0.621300000000     0.813500000000     0          
H26      H      0.093600000000     0.629400000000     0.825600000000     0          
C27      C      0.055900000000     0.575000000000     0.790100000000     0          
H28      H      0.544770000000     0.101930000000     0.785280000000     0          
C29      C      0.443900000000     0.878700000000     0.313500000000     0          
H30      H      0.406400000000     0.870600000000     0.325600000000     0          
C31      C      0.444100000000     0.925000000000     0.290100000000     0          
H32      H      0.955230000000     0.398070000000     0.285280000000     0          
C33      C      0.943900000000     0.378700000000     0.813500000000     0          
H34      H      0.906400000000     0.370600000000     0.825600000000     0          
C35      C      0.944100000000     0.425000000000     0.790100000000     0          
H36      H      0.455230000000     0.898070000000     0.785280000000     0          
C37      C      0.698200000000     0.475000000000     0.396000000000     0          
C38      C      0.763700000000     0.462500000000     0.402900000000     0          
H39      H      0.776900000000     0.455400000000     0.424100000000     0          
C40      C      0.809600000000     0.460600000000     0.378100000000     0          
H41      H      0.853500000000     0.452200000000     0.382700000000     0          
C42      C      0.790000000000     0.471200000000     0.346400000000     0          
C43      C      0.724400000000     0.483700000000     0.339500000000     0          
H44      H      0.711300000000     0.490800000000     0.318300000000     0          
C45      C      0.678500000000     0.486000000000     0.364300000000     0          
H46      H      0.634700000000     0.494000000000     0.359700000000     0          
C47      C      0.878700000000     0.556100000000     0.313500000000     0          
H48      H      0.870600000000     0.593600000000     0.325600000000     0          
C49      C      0.925000000000     0.555900000000     0.290100000000     0          
H50      H      0.398070000000     0.044770000000     0.285280000000     0          
C51      C      0.378700000000     0.056100000000     0.813500000000     0          
H52      H      0.370600000000     0.093600000000     0.825600000000     0          
C53      C      0.425000000000     0.055900000000     0.790100000000     0          
H54      H      0.898070000000     0.544770000000     0.785280000000     0          
C55      C      0.121300000000     0.443900000000     0.313500000000     0          
H56      H      0.129400000000     0.406400000000     0.325600000000     0          
C57      C      0.075000000000     0.444100000000     0.290100000000     0          
H58      H      0.601930000000     0.955230000000     0.285280000000     0          
C59      C      0.621300000000     0.943900000000     0.813500000000     0          
H60      H      0.629400000000     0.906400000000     0.825600000000     0          
C61      C      0.575000000000     0.944100000000     0.790100000000     0          
H62      H      0.101930000000     0.455230000000     0.785280000000     0          
C63      C      0.443900000000     0.121300000000     0.686500000000     0          
H64      H      0.406400000000     0.129400000000     0.674400000000     0          
C65      C      0.444100000000     0.075000000000     0.709900000000     0          
H66      H      0.955230000000     0.601930000000     0.714720000000     0          
C67      C      0.025000000000     0.801800000000     0.104000000000     0          
C68      C      0.037500000000     0.736300000000     0.097100000000     0          
H69      H      0.044600000000     0.723100000000     0.075900000000     0          
C70      C      0.039400000000     0.690400000000     0.121900000000     0          
H71      H      0.047800000000     0.646500000000     0.117300000000     0          
C72      C      0.028800000000     0.710000000000     0.153600000000     0          
C73      C      0.016300000000     0.775600000000     0.160500000000     0          
H74      H      0.009200000000     0.788700000000     0.181700000000     0          
C75      C      0.014000000000     0.821500000000     0.135700000000     0          
H76      H      0.006000000000     0.865300000000     0.140300000000     0          
C77      C      0.943900000000     0.621300000000     0.186500000000     0          
H78      H      0.906400000000     0.629400000000     0.174400000000     0          
C79      C      0.944100000000     0.575000000000     0.209900000000     0          
H80      H      0.455230000000     0.101930000000     0.214720000000     0          
C81      C      0.475000000000     0.698200000000     0.604000000000     0          
C82      C      0.462500000000     0.763700000000     0.597100000000     0          
H83      H      0.455400000000     0.776900000000     0.575900000000     0          
C84      C      0.460600000000     0.809600000000     0.621900000000     0          
H85      H      0.452200000000     0.853500000000     0.617300000000     0          
C86      C      0.471200000000     0.790000000000     0.653600000000     0          
C87      C      0.483700000000     0.724400000000     0.660500000000     0          
H88      H      0.490800000000     0.711300000000     0.681700000000     0          
C89      C      0.486000000000     0.678500000000     0.635700000000     0          
H90      H      0.494000000000     0.634700000000     0.640300000000     0          
C91      C      0.556100000000     0.878700000000     0.686500000000     0          
H92      H      0.593600000000     0.870600000000     0.674400000000     0          
C93      C      0.555900000000     0.925000000000     0.709900000000     0          
H94      H      0.044770000000     0.398070000000     0.714720000000     0          
C95      C      0.056100000000     0.378700000000     0.186500000000     0          
H96      H      0.093600000000     0.370600000000     0.174400000000     0          
C97      C      0.055900000000     0.425000000000     0.209900000000     0          
H98      H      0.544770000000     0.898070000000     0.214720000000     0          
C99      C      0.301800000000     0.475000000000     0.604000000000     0          
C100     C      0.236300000000     0.462500000000     0.597100000000     0          
H101     H      0.223100000000     0.455400000000     0.575900000000     0          
C102     C      0.190400000000     0.460600000000     0.621900000000     0          
H103     H      0.146500000000     0.452200000000     0.617300000000     0          
C104     C      0.210000000000     0.471200000000     0.653600000000     0          
C105     C      0.275600000000     0.483700000000     0.660500000000     0          
H106     H      0.288700000000     0.490800000000     0.681700000000     0          
C107     C      0.321500000000     0.486000000000     0.635700000000     0          
H108     H      0.365300000000     0.494000000000     0.640300000000     0          
C109     C      0.121300000000     0.556100000000     0.686500000000     0          
H110     H      0.129400000000     0.593600000000     0.674400000000     0          
C111     C      0.075000000000     0.555900000000     0.709900000000     0          
H112     H      0.601930000000     0.044770000000     0.714720000000     0          
C113     C      0.621300000000     0.056100000000     0.186500000000     0          
H114     H      0.629400000000     0.093600000000     0.174400000000     0          
C115     C      0.575000000000     0.055900000000     0.209900000000     0          
H116     H      0.101930000000     0.544770000000     0.214720000000     0          
C117     C      0.878700000000     0.443900000000     0.686500000000     0          
H118     H      0.870600000000     0.406400000000     0.674400000000     0          
C119     C      0.925000000000     0.444100000000     0.709900000000     0          
H120     H      0.398070000000     0.955230000000     0.714720000000     0          
C121     C      0.378700000000     0.943900000000     0.186500000000     0          
H122     H      0.370600000000     0.906400000000     0.174400000000     0          
C123     C      0.425000000000     0.944100000000     0.209900000000     0          
H124     H      0.898070000000     0.455230000000     0.214720000000     0          
C125     C      0.443900000000     0.878700000000     0.686500000000     0          
H126     H      0.406400000000     0.870600000000     0.674400000000     0          
C127     C      0.444100000000     0.925000000000     0.709900000000     0          
H128     H      0.955230000000     0.398070000000     0.714720000000     0          
C129     C      0.025000000000     0.198200000000     0.104000000000     0          
C130     C      0.037500000000     0.263700000000     0.097100000000     0          
H131     H      0.044600000000     0.276900000000     0.075900000000     0          
C132     C      0.039400000000     0.309600000000     0.121900000000     0          
H133     H      0.047800000000     0.353500000000     0.117300000000     0          
C134     C      0.028800000000     0.290000000000     0.153600000000     0          
C135     C      0.016300000000     0.224400000000     0.160500000000     0          
H136     H      0.009200000000     0.211300000000     0.181700000000     0          
C137     C      0.014000000000     0.178500000000     0.135700000000     0          
H138     H      0.006000000000     0.134700000000     0.140300000000     0          
C139     C      0.943900000000     0.378700000000     0.186500000000     0          
H140     H      0.906400000000     0.370600000000     0.174400000000     0          
C141     C      0.944100000000     0.425000000000     0.209900000000     0          
H142     H      0.455230000000     0.898070000000     0.214720000000     0          
C143     C      0.475000000000     0.301800000000     0.604000000000     0          
C144     C      0.462500000000     0.236300000000     0.597100000000     0          
H145     H      0.455400000000     0.223100000000     0.575900000000     0          
C146     C      0.460600000000     0.190400000000     0.621900000000     0          
H147     H      0.452200000000     0.146500000000     0.617300000000     0          
C148     C      0.471200000000     0.210000000000     0.653600000000     0          
C149     C      0.483700000000     0.275600000000     0.660500000000     0          
H150     H      0.490800000000     0.288700000000     0.681700000000     0          
C151     C      0.486000000000     0.321500000000     0.635700000000     0          
H152     H      0.494000000000     0.365300000000     0.640300000000     0          
C153     C      0.556100000000     0.121300000000     0.686500000000     0          
H154     H      0.593600000000     0.129400000000     0.674400000000     0          
C155     C      0.555900000000     0.075000000000     0.709900000000     0          
H156     H      0.044770000000     0.601930000000     0.714720000000     0          
C157     C      0.056100000000     0.621300000000     0.186500000000     0          
H158     H      0.093600000000     0.629400000000     0.174400000000     0          
C159     C      0.055900000000     0.575000000000     0.209900000000     0          
H160     H      0.544770000000     0.101930000000     0.214720000000     0          
C161     C      0.121300000000     0.443900000000     0.686500000000     0          
H162     H      0.129400000000     0.406400000000     0.674400000000     0          
C163     C      0.075000000000     0.444100000000     0.709900000000     0          
H164     H      0.601930000000     0.955230000000     0.714720000000     0          
C165     C      0.801800000000     0.025000000000     0.104000000000     0          
C166     C      0.736300000000     0.037500000000     0.097100000000     0          
H167     H      0.723100000000     0.044600000000     0.075900000000     0          
C168     C      0.690400000000     0.039400000000     0.121900000000     0          
H169     H      0.646500000000     0.047800000000     0.117300000000     0          
C170     C      0.710000000000     0.028800000000     0.153600000000     0          
C171     C      0.775600000000     0.016300000000     0.160500000000     0          
H172     H      0.788700000000     0.009200000000     0.181700000000     0          
C173     C      0.821500000000     0.014000000000     0.135700000000     0          
H174     H      0.865300000000     0.006000000000     0.140300000000     0          
C175     C      0.621300000000     0.943900000000     0.186500000000     0          
H176     H      0.629400000000     0.906400000000     0.174400000000     0          
C177     C      0.575000000000     0.944100000000     0.209900000000     0          
H178     H      0.101930000000     0.455230000000     0.214720000000     0          
C179     C      0.698200000000     0.475000000000     0.604000000000     0          
C180     C      0.763700000000     0.462500000000     0.597100000000     0          
H181     H      0.776900000000     0.455400000000     0.575900000000     0          
C182     C      0.809600000000     0.460600000000     0.621900000000     0          
H183     H      0.853500000000     0.452200000000     0.617300000000     0          
C184     C      0.790000000000     0.471200000000     0.653600000000     0          
C185     C      0.724400000000     0.483700000000     0.660500000000     0          
H186     H      0.711300000000     0.490800000000     0.681700000000     0          
C187     C      0.678500000000     0.486000000000     0.635700000000     0          
H188     H      0.634700000000     0.494000000000     0.640300000000     0          
C189     C      0.878700000000     0.556100000000     0.686500000000     0          
H190     H      0.870600000000     0.593600000000     0.674400000000     0          
C191     C      0.925000000000     0.555900000000     0.709900000000     0          
H192     H      0.398070000000     0.044770000000     0.714720000000     0          
C193     C      0.198200000000     0.975000000000     0.104000000000     0          
C194     C      0.263700000000     0.962500000000     0.097100000000     0          
H195     H      0.276900000000     0.955400000000     0.075900000000     0          
C196     C      0.309600000000     0.960600000000     0.121900000000     0          
H197     H      0.353500000000     0.952200000000     0.117300000000     0          
C198     C      0.290000000000     0.971200000000     0.153600000000     0          
C199     C      0.224400000000     0.983700000000     0.160500000000     0          
H200     H      0.211300000000     0.990800000000     0.181700000000     0          
C201     C      0.178500000000     0.986000000000     0.135700000000     0          
H202     H      0.134700000000     0.994000000000     0.140300000000     0          
C203     C      0.378700000000     0.056100000000     0.186500000000     0          
H204     H      0.370600000000     0.093600000000     0.174400000000     0          
C205     C      0.425000000000     0.055900000000     0.209900000000     0          
H206     H      0.898070000000     0.544770000000     0.214720000000     0          
C207     C      0.475000000000     0.698200000000     0.396000000000     0          
C208     C      0.462500000000     0.763700000000     0.402900000000     0          
H209     H      0.455400000000     0.776900000000     0.424100000000     0          
C210     C      0.460600000000     0.809600000000     0.378100000000     0          
H211     H      0.452200000000     0.853500000000     0.382700000000     0          
C212     C      0.471200000000     0.790000000000     0.346400000000     0          
C213     C      0.483700000000     0.724400000000     0.339500000000     0          
H214     H      0.490800000000     0.711300000000     0.318300000000     0          
C215     C      0.486000000000     0.678500000000     0.364300000000     0          
H216     H      0.494000000000     0.634700000000     0.359700000000     0          
C217     C      0.556100000000     0.878700000000     0.313500000000     0          
H218     H      0.593600000000     0.870600000000     0.325600000000     0          
C219     C      0.555900000000     0.925000000000     0.290100000000     0          
H220     H      0.044770000000     0.398070000000     0.285280000000     0          
C221     C      0.975000000000     0.198200000000     0.896000000000     0          
C222     C      0.962500000000     0.263700000000     0.902900000000     0          
H223     H      0.955400000000     0.276900000000     0.924100000000     0          
C224     C      0.960600000000     0.309600000000     0.878100000000     0          
H225     H      0.952200000000     0.353500000000     0.882700000000     0          
C226     C      0.971200000000     0.290000000000     0.846400000000     0          
C227     C      0.983700000000     0.224400000000     0.839500000000     0          
H228     H      0.990800000000     0.211300000000     0.818300000000     0          
C229     C      0.986000000000     0.178500000000     0.864300000000     0          
H230     H      0.994000000000     0.134700000000     0.859700000000     0          
C231     C      0.056100000000     0.378700000000     0.813500000000     0          
H232     H      0.093600000000     0.370600000000     0.825600000000     0          
C233     C      0.055900000000     0.425000000000     0.790100000000     0          
H234     H      0.544770000000     0.898070000000     0.785280000000     0          
C235     C      0.443900000000     0.121300000000     0.313500000000     0          
H236     H      0.406400000000     0.129400000000     0.325600000000     0          
C237     C      0.444100000000     0.075000000000     0.290100000000     0          
H238     H      0.955230000000     0.601930000000     0.285280000000     0          
C239     C      0.943900000000     0.621300000000     0.813500000000     0          
H240     H      0.906400000000     0.629400000000     0.825600000000     0          
C241     C      0.944100000000     0.575000000000     0.790100000000     0          
H242     H      0.455230000000     0.101930000000     0.785280000000     0          
C243     C      0.878700000000     0.443900000000     0.313500000000     0          
H244     H      0.870600000000     0.406400000000     0.325600000000     0          
C245     C      0.925000000000     0.444100000000     0.290100000000     0          
H246     H      0.398070000000     0.955230000000     0.285280000000     0          
C247     C      0.198200000000     0.025000000000     0.896000000000     0          
C248     C      0.263700000000     0.037500000000     0.902900000000     0          
H249     H      0.276900000000     0.044600000000     0.924100000000     0          
C250     C      0.309600000000     0.039400000000     0.878100000000     0          
H251     H      0.353500000000     0.047800000000     0.882700000000     0          
C252     C      0.290000000000     0.028800000000     0.846400000000     0          
C253     C      0.224400000000     0.016300000000     0.839500000000     0          
H254     H      0.211300000000     0.009200000000     0.818300000000     0          
C255     C      0.178500000000     0.014000000000     0.864300000000     0          
H256     H      0.134700000000     0.006000000000     0.859700000000     0          
C257     C      0.378700000000     0.943900000000     0.813500000000     0          
H258     H      0.370600000000     0.906400000000     0.825600000000     0          
C259     C      0.425000000000     0.944100000000     0.790100000000     0          
H260     H      0.898070000000     0.455230000000     0.785280000000     0          
C261     C      0.301800000000     0.475000000000     0.396000000000     0          
C262     C      0.236300000000     0.462500000000     0.402900000000     0          
H263     H      0.223100000000     0.455400000000     0.424100000000     0          
C264     C      0.190400000000     0.460600000000     0.378100000000     0          
H265     H      0.146500000000     0.452200000000     0.382700000000     0          
C266     C      0.210000000000     0.471200000000     0.346400000000     0          
C267     C      0.275600000000     0.483700000000     0.339500000000     0          
H268     H      0.288700000000     0.490800000000     0.318300000000     0          
C269     C      0.321500000000     0.486000000000     0.364300000000     0          
H270     H      0.365300000000     0.494000000000     0.359700000000     0          
C271     C      0.121300000000     0.556100000000     0.313500000000     0          
H272     H      0.129400000000     0.593600000000     0.325600000000     0          
C273     C      0.075000000000     0.555900000000     0.290100000000     0          
H274     H      0.601930000000     0.044770000000     0.285280000000     0          
C275     C      0.801800000000     0.975000000000     0.896000000000     0          
C276     C      0.736300000000     0.962500000000     0.902900000000     0          
H277     H      0.723100000000     0.955400000000     0.924100000000     0          
C278     C      0.690400000000     0.960600000000     0.878100000000     0          
H279     H      0.646500000000     0.952200000000     0.882700000000     0          
C280     C      0.710000000000     0.971200000000     0.846400000000     0          
C281     C      0.775600000000     0.983700000000     0.839500000000     0          
H282     H      0.788700000000     0.990800000000     0.818300000000     0          
C283     C      0.821500000000     0.986000000000     0.864300000000     0          
H284     H      0.865300000000     0.994000000000     0.859700000000     0          
C285     C      0.621300000000     0.056100000000     0.813500000000     0          
H286     H      0.629400000000     0.093600000000     0.825600000000     0          
C287     C      0.575000000000     0.055900000000     0.790100000000     0          
H288     H      0.101930000000     0.544770000000     0.785280000000     0          
Zr289    Zr     0.500000000000     0.500000000000     0.441110000000     0          
Zr290    Zr     0.000000000000     0.000000000000     0.941110000000     0          
Zr291    Zr     0.500000000000     0.500000000000     0.558890000000     0          
Zr292    Zr     0.000000000000     0.000000000000     0.058890000000     0          
O293     O      0.500000000000     0.321000000000     0.453500000000     0          
C294     C      0.500000000000     0.341400000000     0.420800000000     0          
O295     O      0.500000000000     0.407800000000     0.411700000000     0          
C296     C      0.500000000000     0.156000000000     0.318700000000     0          
C297     C      0.500000000000     0.066000000000     0.272900000000     0          
O298     O      0.000000000000     0.821000000000     0.953500000000     0          
C299     C      0.000000000000     0.841400000000     0.920800000000     0          
O300     O      0.000000000000     0.907800000000     0.911700000000     0          
C301     C      0.000000000000     0.656000000000     0.818700000000     0          
C302     C      0.000000000000     0.566000000000     0.772900000000     0          
O303     O      0.500000000000     0.679000000000     0.453500000000     0          
C304     C      0.500000000000     0.658600000000     0.420800000000     0          
O305     O      0.500000000000     0.592200000000     0.411700000000     0          
C306     C      0.500000000000     0.844000000000     0.318700000000     0          
C307     C      0.500000000000     0.934000000000     0.272900000000     0          
O308     O      0.000000000000     0.179000000000     0.953500000000     0          
C309     C      0.000000000000     0.158600000000     0.920800000000     0          
O310     O      0.000000000000     0.092200000000     0.911700000000     0          
C311     C      0.000000000000     0.344000000000     0.818700000000     0          
C312     C      0.000000000000     0.434000000000     0.772900000000     0          
O313     O      0.679000000000     0.500000000000     0.453500000000     0          
C314     C      0.658600000000     0.500000000000     0.420800000000     0          
O315     O      0.592200000000     0.500000000000     0.411700000000     0          
C316     C      0.844000000000     0.500000000000     0.318700000000     0          
C317     C      0.934000000000     0.500000000000     0.272900000000     0          
O318     O      0.179000000000     0.000000000000     0.953500000000     0          
C319     C      0.158600000000     0.000000000000     0.920800000000     0          
O320     O      0.092200000000     0.000000000000     0.911700000000     0          
C321     C      0.344000000000     0.000000000000     0.818700000000     0          
C322     C      0.434000000000     0.000000000000     0.772900000000     0          
O323     O      0.321000000000     0.500000000000     0.453500000000     0          
C324     C      0.341400000000     0.500000000000     0.420800000000     0          
O325     O      0.407800000000     0.500000000000     0.411700000000     0          
C326     C      0.156000000000     0.500000000000     0.318700000000     0          
C327     C      0.066000000000     0.500000000000     0.272900000000     0          
O328     O      0.821000000000     0.000000000000     0.953500000000     0          
C329     C      0.841400000000     0.000000000000     0.920800000000     0          
O330     O      0.907800000000     0.000000000000     0.911700000000     0          
C331     C      0.656000000000     0.000000000000     0.818700000000     0          
C332     C      0.566000000000     0.000000000000     0.772900000000     0          
O333     O      0.500000000000     0.321000000000     0.546500000000     0          
C334     C      0.500000000000     0.341400000000     0.579200000000     0          
O335     O      0.500000000000     0.407800000000     0.588300000000     0          
C336     C      0.500000000000     0.156000000000     0.681300000000     0          
C337     C      0.500000000000     0.066000000000     0.727100000000     0          
O338     O      0.000000000000     0.821000000000     0.046500000000     0          
C339     C      0.000000000000     0.841400000000     0.079200000000     0          
O340     O      0.000000000000     0.907800000000     0.088300000000     0          
C341     C      0.000000000000     0.656000000000     0.181300000000     0          
C342     C      0.000000000000     0.566000000000     0.227100000000     0          
O343     O      0.500000000000     0.679000000000     0.546500000000     0          
C344     C      0.500000000000     0.658600000000     0.579200000000     0          
O345     O      0.500000000000     0.592200000000     0.588300000000     0          
C346     C      0.500000000000     0.844000000000     0.681300000000     0          
C347     C      0.500000000000     0.934000000000     0.727100000000     0          
O348     O      0.000000000000     0.179000000000     0.046500000000     0          
C349     C      0.000000000000     0.158600000000     0.079200000000     0          
O350     O      0.000000000000     0.092200000000     0.088300000000     0          
C351     C      0.000000000000     0.344000000000     0.181300000000     0          
C352     C      0.000000000000     0.434000000000     0.227100000000     0          
O353     O      0.321000000000     0.500000000000     0.546500000000     0          
C354     C      0.341400000000     0.500000000000     0.579200000000     0          
O355     O      0.407800000000     0.500000000000     0.588300000000     0          
C356     C      0.156000000000     0.500000000000     0.681300000000     0          
C357     C      0.066000000000     0.500000000000     0.727100000000     0          
O358     O      0.821000000000     0.000000000000     0.046500000000     0          
C359     C      0.841400000000     0.000000000000     0.079200000000     0          
O360     O      0.907800000000     0.000000000000     0.088300000000     0          
C361     C      0.656000000000     0.000000000000     0.181300000000     0          
C362     C      0.566000000000     0.000000000000     0.227100000000     0          
O363     O      0.679000000000     0.500000000000     0.546500000000     0          
C364     C      0.658600000000     0.500000000000     0.579200000000     0          
O365     O      0.592200000000     0.500000000000     0.588300000000     0          
C366     C      0.844000000000     0.500000000000     0.681300000000     0          
C367     C      0.934000000000     0.500000000000     0.727100000000     0          
O368     O      0.179000000000     0.000000000000     0.046500000000     0          
C369     C      0.158600000000     0.000000000000     0.079200000000     0          
O370     O      0.092200000000     0.000000000000     0.088300000000     0          
C371     C      0.344000000000     0.000000000000     0.181300000000     0          
C372     C      0.434000000000     0.000000000000     0.227100000000     0          
Zr373    Zr     0.500000000000     0.621830000000     0.500000000000     0          
Zr374    Zr     0.000000000000     0.121830000000     0.000000000000     0          
Zr375    Zr     0.500000000000     0.378170000000     0.500000000000     0          
Zr376    Zr     0.000000000000     0.878170000000     0.000000000000     0          
Zr377    Zr     0.378170000000     0.500000000000     0.500000000000     0          
Zr378    Zr     0.878170000000     0.000000000000     0.000000000000     0          
Zr379    Zr     0.621830000000     0.500000000000     0.500000000000     0          
Zr380    Zr     0.121830000000     0.000000000000     0.000000000000     0          
O381     O      0.560200000000     0.560200000000     0.469400000000     0          
O382     O      0.060200000000     0.060200000000     0.969400000000     0          
O383     O      0.439800000000     0.439800000000     0.469400000000     0          
O384     O      0.939800000000     0.939800000000     0.969400000000     0          
O385     O      0.439800000000     0.560200000000     0.469400000000     0          
O386     O      0.939800000000     0.060200000000     0.969400000000     0          
O387     O      0.560200000000     0.439800000000     0.469400000000     0          
O388     O      0.060200000000     0.939800000000     0.969400000000     0          
O389     O      0.439800000000     0.560200000000     0.530600000000     0          
O390     O      0.939800000000     0.060200000000     0.030600000000     0          
O391     O      0.560200000000     0.439800000000     0.530600000000     0          
O392     O      0.060200000000     0.939800000000     0.030600000000     0          
O393     O      0.560200000000     0.560200000000     0.530600000000     0          
O394     O      0.060200000000     0.060200000000     0.030600000000     0          
O395     O      0.439800000000     0.439800000000     0.530600000000     0          
O396     O      0.939800000000     0.939800000000     0.030600000000     0          
C397     C      0.500000000000     0.000000000000     0.250000000000     0          
C398     C      0.000000000000     0.500000000000     0.250000000000     0          
C399     C      0.500000000000     0.000000000000     0.750000000000     0          
C400     C      0.000000000000     0.500000000000     0.750000000000     0          


