data_WOCJII

_audit_creation_method RASPA-1.0
_audit_creation_date 2020-1-15
_audit_author_name 'Rocio Bueno-Perez'

_cell_length_a    10.225
_cell_length_b    19.053
_cell_length_c    13.954
_cell_angle_alpha 90
_cell_angle_beta  99.509
_cell_angle_gamma 90
_cell_volume      2681.12

_symmetry_cell_setting          monoclinic
_symmetry_space_group_name_Hall 'P 1'
_symmetry_space_group_name_H-M  'P 1'
_symmetry_Int_Tables_number     1

_symmetry_equiv_pos_as_xyz 'x,y,z'

loop_
_atom_site_label
_atom_site_type_symbol
_atom_site_fract_x
_atom_site_fract_y
_atom_site_fract_z
_atom_site_charge
Zr1      Zr     0.501440000000     0.371330000000     0.743880000000     0          
Zr2      Zr     0.991150000000     0.227020000000     0.244970000000     0          
K1       K      0.318650000000     0.148540000000     0.411300000000     0          
K2       K      0.331600000000     0.647260000000     0.918590000000     0          
K3       K      0.178600000000     0.451420000000     0.582130000000     0          
K4       K      0.826600000000     0.449210000000     0.904810000000     0          
C1       C      0.330100000000     0.477200000000     0.834200000000     0          
C2       C      0.471500000000     0.484800000000     0.893400000000     0          
C3       C      0.505600000000     0.272400000000     0.916400000000     0          
C4       C      0.652300000000     0.274700000000     0.898500000000     0          
C5       C      0.489600000000     0.270400000000     0.571400000000     0          
C6       C      0.342800000000     0.279500000000     0.585400000000     0          
C7       C      0.680400000000     0.475800000000     0.658700000000     0          
C8       C      0.542900000000     0.484800000000     0.596200000000     0          
C9       C      0.815400000000     0.124200000000     0.332200000000     0          
C10      C      0.956800000000     0.115300000000     0.395600000000     0          
C11      C      0.998300000000     0.333500000000     0.413100000000     0          
C12      C      0.130700000000     0.340800000000     0.377900000000     0          
C13      C      0.844400000000     0.333100000000     0.102700000000     0          
C14      C      0.980300000000     0.328300000000     0.070100000000     0          
C15      C      0.171800000000     0.124400000000     0.162600000000     0          
C16      C      0.033100000000     0.112300000000     0.099700000000     0          
O1       O      0.323200000000     0.429200000000     0.768700000000     0          
O2       O      0.555400000000     0.442800000000     0.867800000000     0          
O3       O      0.239400000000     0.513600000000     0.851600000000     0          
O4       O      0.494100000000     0.528800000000     0.959700000000     0          
O5       O      0.424900000000     0.304600000000     0.851600000000     0          
O6       O      0.667700000000     0.316000000000     0.829200000000     0          
O7       O      0.479900000000     0.243700000000     0.989300000000     0          
O8       O      0.737600000000     0.239400000000     0.948400000000     0          
O9       O      0.571200000000     0.303000000000     0.635900000000     0          
O10      O      0.330600000000     0.320100000000     0.657500000000     0          
O11      O      0.514900000000     0.236400000000     0.502900000000     0          
O12      O      0.252800000000     0.250800000000     0.531300000000     0          
O13      O      0.685400000000     0.425600000000     0.720200000000     0          
O14      O      0.455200000000     0.443900000000     0.619700000000     0          
O15      O      0.772800000000     0.513800000000     0.647100000000     0          
O16      O      0.524400000000     0.529300000000     0.531200000000     0          
O17      O      0.810100000000     0.173900000000     0.269900000000     0          
O18      O      0.042900000000     0.155700000000     0.368200000000     0          
O19      O      0.725000000000     0.084700000000     0.345900000000     0          
O20      O      0.973700000000     0.073200000000     0.462300000000     0          
O21      O      0.920600000000     0.289200000000     0.363600000000     0          
O22      O      0.148900000000     0.295600000000     0.312300000000     0          
O23      O      0.971800000000     0.369600000000     0.481300000000     0          
O24      O      0.210200000000     0.387800000000     0.408400000000     0          
O25      O      0.828200000000     0.289600000000     0.170700000000     0          
O26      O      0.057400000000     0.284600000000     0.121300000000     0          
O27      O      0.762400000000     0.377100000000     0.066100000000     0          
O28      O      0.009500000000     0.362900000000     0.003400000000     0          
O29      O      0.175200000000     0.174500000000     0.223400000000     0          
O30      O      0.942700000000     0.151300000000     0.126900000000     0          
O31      O      0.264100000000     0.084400000000     0.152500000000     0          
O32      O      0.018000000000     0.070800000000     0.032700000000     0          
K1A      K      0.681350000000     0.648540000000     0.588700000000     0          
K2A      K      0.668400000000     0.147260000000     0.081410000000     0          
K3A      K      0.821400000000     0.951420000000     0.417870000000     0          
K4A      K      0.173400000000     0.949210000000     0.095190000000     0          
O7A      O      0.520100000000     0.743700000000     0.010700000000     0          
O8A      O      0.262400000000     0.739400000000     0.051600000000     0          
O15A     O      0.227200000000     0.013800000000     0.352900000000     0          
O16A     O      0.475600000000     0.029300000000     0.468800000000     0          
O17A     O      0.189900000000     0.673900000000     0.730100000000     0          
O19A     O      0.275000000000     0.584700000000     0.654100000000     0          
O20A     O      0.026300000000     0.573200000000     0.537700000000     0          
O30A     O      0.057300000000     0.651300000000     0.873100000000     0          
O31A     O      0.735900000000     0.584400000000     0.847500000000     0          
O32A     O      0.982000000000     0.570800000000     0.967300000000     0          
Zr1      Zr     0.498560000000     0.871330000000     0.256120000000     0          
Zr2      Zr     0.008850000000     0.727020000000     0.755030000000     0          
C1       C      0.669900000000     0.977200000000     0.165800000000     0          
C2       C      0.528500000000     0.984800000000     0.106600000000     0          
C3       C      0.494400000000     0.772400000000     0.083600000000     0          
C4       C      0.347700000000     0.774700000000     0.101500000000     0          
C5       C      0.510400000000     0.770400000000     0.428600000000     0          
C6       C      0.657200000000     0.779500000000     0.414600000000     0          
C7       C      0.319600000000     0.975800000000     0.341300000000     0          
C8       C      0.457100000000     0.984800000000     0.403800000000     0          
C9       C      0.184600000000     0.624200000000     0.667800000000     0          
C10      C      0.043200000000     0.615300000000     0.604400000000     0          
C11      C      0.001700000000     0.833500000000     0.586900000000     0          
C12      C      0.869300000000     0.840800000000     0.622100000000     0          
C13      C      0.155600000000     0.833100000000     0.897300000000     0          
C14      C      0.019700000000     0.828300000000     0.929900000000     0          
C15      C      0.828200000000     0.624400000000     0.837400000000     0          
C16      C      0.966900000000     0.612300000000     0.900300000000     0          
O1       O      0.676800000000     0.929200000000     0.231300000000     0          
O2       O      0.444600000000     0.942800000000     0.132200000000     0          
O3       O      0.760600000000     0.013600000000     0.148400000000     0          
O4       O      0.505900000000     0.028800000000     0.040300000000     0          
O5       O      0.575100000000     0.804600000000     0.148400000000     0          
O6       O      0.332300000000     0.816000000000     0.170800000000     0          
O9       O      0.428800000000     0.803000000000     0.364100000000     0          
O10      O      0.669400000000     0.820100000000     0.342500000000     0          
O11      O      0.485100000000     0.736400000000     0.497100000000     0          
O12      O      0.747200000000     0.750800000000     0.468700000000     0          
O13      O      0.314600000000     0.925600000000     0.279800000000     0          
O14      O      0.544800000000     0.943900000000     0.380300000000     0          
O18      O      0.957100000000     0.655700000000     0.631800000000     0          
O21      O      0.079400000000     0.789200000000     0.636400000000     0          
O22      O      0.851100000000     0.795600000000     0.687700000000     0          
O23      O      0.028200000000     0.869600000000     0.518700000000     0          
O24      O      0.789800000000     0.887800000000     0.591600000000     0          
O25      O      0.171800000000     0.789600000000     0.829300000000     0          
O26      O      0.942600000000     0.784600000000     0.878700000000     0          
O27      O      0.237600000000     0.877100000000     0.933900000000     0          
O28      O      0.990500000000     0.862900000000     0.996600000000     0          
O29      O      0.824800000000     0.674500000000     0.776600000000     0          


