data_WUHDAG

_audit_creation_method RASPA-1.0
_audit_creation_date 2020-11-2
_audit_author_name 'Rocio Bueno-Perez'

_cell_length_a    28.9202
_cell_length_b    28.9202
_cell_length_c    28.9202
_cell_angle_alpha 90
_cell_angle_beta  90
_cell_angle_gamma 90
_cell_volume      24188.2

_symmetry_cell_setting          triclinic
_symmetry_space_group_name_Hall 'P 1'
_symmetry_space_group_name_H-M  'P 1'
_symmetry_Int_Tables_number     1

_symmetry_equiv_pos_as_xyz 'x,y,z'

loop_
_atom_site_label
_atom_site_type_symbol
_atom_site_fract_x
_atom_site_fract_y
_atom_site_fract_z
_atom_site_charge
C1       C      0.666200000000     0.477660000000     0.276330000000     0          
C2       C      0.901310000000     0.453200000000     0.037970000000     0          
C3       C      0.853940000000     0.455200000000     0.023370000000     0          
H4       H      0.827500000000     0.456300000000     0.042900000000     0          
C5       C      0.632950000000     0.484390000000     0.309620000000     0          
H6       H      0.601400000000     0.486800000000     0.300900000000     0          
H7       H      0.657400000000     0.475400000000     0.244800000000     0          
C8       C      0.333800000000     0.477660000000     0.723670000000     0          
C9       C      0.098690000000     0.453200000000     0.962030000000     0          
C10      C      0.146060000000     0.455200000000     0.976630000000     0          
H11      H      0.172500000000     0.456300000000     0.957100000000     0          
C12      C      0.367050000000     0.484390000000     0.690380000000     0          
H13      H      0.398600000000     0.486800000000     0.699100000000     0          
H14      H      0.342600000000     0.475400000000     0.755200000000     0          
C15      C      0.276330000000     0.666200000000     0.477660000000     0          
C16      C      0.037970000000     0.901310000000     0.453200000000     0          
C17      C      0.023370000000     0.853940000000     0.455200000000     0          
H18      H      0.042900000000     0.827500000000     0.456300000000     0          
C19      C      0.309620000000     0.632950000000     0.484390000000     0          
H20      H      0.300900000000     0.601400000000     0.486800000000     0          
H21      H      0.244800000000     0.657400000000     0.475400000000     0          
C22      C      0.723670000000     0.333800000000     0.477660000000     0          
C23      C      0.962030000000     0.098690000000     0.453200000000     0          
C24      C      0.976630000000     0.146060000000     0.455200000000     0          
H25      H      0.957100000000     0.172500000000     0.456300000000     0          
C26      C      0.690380000000     0.367050000000     0.484390000000     0          
H27      H      0.699100000000     0.398600000000     0.486800000000     0          
H28      H      0.755200000000     0.342600000000     0.475400000000     0          
C29      C      0.477660000000     0.276330000000     0.666200000000     0          
C30      C      0.453200000000     0.037970000000     0.901310000000     0          
C31      C      0.455200000000     0.023370000000     0.853940000000     0          
H32      H      0.456300000000     0.042900000000     0.827500000000     0          
C33      C      0.484390000000     0.309620000000     0.632950000000     0          
H34      H      0.486800000000     0.300900000000     0.601400000000     0          
H35      H      0.475400000000     0.244800000000     0.657400000000     0          
C36      C      0.477660000000     0.723670000000     0.333800000000     0          
C37      C      0.453200000000     0.962030000000     0.098690000000     0          
C38      C      0.455200000000     0.976630000000     0.146060000000     0          
H39      H      0.456300000000     0.957100000000     0.172500000000     0          
C40      C      0.484390000000     0.690380000000     0.367050000000     0          
H41      H      0.486800000000     0.699100000000     0.398600000000     0          
H42      H      0.475400000000     0.755200000000     0.342600000000     0          
C43      C      0.477660000000     0.666200000000     0.723670000000     0          
C44      C      0.453200000000     0.901310000000     0.962030000000     0          
C45      C      0.455200000000     0.853940000000     0.976630000000     0          
H46      H      0.456300000000     0.827500000000     0.957100000000     0          
C47      C      0.484390000000     0.632950000000     0.690380000000     0          
H48      H      0.486800000000     0.601400000000     0.699100000000     0          
H49      H      0.475400000000     0.657400000000     0.755200000000     0          
C50      C      0.477660000000     0.333800000000     0.276330000000     0          
C51      C      0.453200000000     0.098690000000     0.037970000000     0          
C52      C      0.455200000000     0.146060000000     0.023370000000     0          
H53      H      0.456300000000     0.172500000000     0.042900000000     0          
C54      C      0.484390000000     0.367050000000     0.309620000000     0          
H55      H      0.486800000000     0.398600000000     0.300900000000     0          
H56      H      0.475400000000     0.342600000000     0.244800000000     0          
C57      C      0.333800000000     0.276330000000     0.477660000000     0          
C58      C      0.098690000000     0.037970000000     0.453200000000     0          
C59      C      0.146060000000     0.023370000000     0.455200000000     0          
H60      H      0.172500000000     0.042900000000     0.456300000000     0          
C61      C      0.367050000000     0.309620000000     0.484390000000     0          
H62      H      0.398600000000     0.300900000000     0.486800000000     0          
H63      H      0.342600000000     0.244800000000     0.475400000000     0          
C64      C      0.666200000000     0.723670000000     0.477660000000     0          
C65      C      0.901310000000     0.962030000000     0.453200000000     0          
C66      C      0.853940000000     0.976630000000     0.455200000000     0          
H67      H      0.827500000000     0.957100000000     0.456300000000     0          
C68      C      0.632950000000     0.690380000000     0.484390000000     0          
H69      H      0.601400000000     0.699100000000     0.486800000000     0          
H70      H      0.657400000000     0.755200000000     0.475400000000     0          
C71      C      0.276330000000     0.477660000000     0.333800000000     0          
C72      C      0.037970000000     0.453200000000     0.098690000000     0          
C73      C      0.023370000000     0.455200000000     0.146060000000     0          
H74      H      0.042900000000     0.456300000000     0.172500000000     0          
C75      C      0.309620000000     0.484390000000     0.367050000000     0          
H76      H      0.300900000000     0.486800000000     0.398600000000     0          
H77      H      0.244800000000     0.475400000000     0.342600000000     0          
C78      C      0.723670000000     0.477660000000     0.666200000000     0          
C79      C      0.962030000000     0.453200000000     0.901310000000     0          
C80      C      0.976630000000     0.455200000000     0.853940000000     0          
H81      H      0.957100000000     0.456300000000     0.827500000000     0          
C82      C      0.690380000000     0.484390000000     0.632950000000     0          
H83      H      0.699100000000     0.486800000000     0.601400000000     0          
H84      H      0.755200000000     0.475400000000     0.657400000000     0          
C85      C      0.666200000000     0.477660000000     0.723670000000     0          
C86      C      0.901310000000     0.453200000000     0.962030000000     0          
C87      C      0.853940000000     0.455200000000     0.976630000000     0          
H88      H      0.827500000000     0.456300000000     0.957100000000     0          
C89      C      0.632950000000     0.484390000000     0.690380000000     0          
H90      H      0.601400000000     0.486800000000     0.699100000000     0          
H91      H      0.657400000000     0.475400000000     0.755200000000     0          
C92      C      0.333800000000     0.477660000000     0.276330000000     0          
C93      C      0.098690000000     0.453200000000     0.037970000000     0          
C94      C      0.146060000000     0.455200000000     0.023370000000     0          
H95      H      0.172500000000     0.456300000000     0.042900000000     0          
C96      C      0.367050000000     0.484390000000     0.309620000000     0          
H97      H      0.398600000000     0.486800000000     0.300900000000     0          
H98      H      0.342600000000     0.475400000000     0.244800000000     0          
C99      C      0.723670000000     0.666200000000     0.477660000000     0          
C100     C      0.962030000000     0.901310000000     0.453200000000     0          
C101     C      0.976630000000     0.853940000000     0.455200000000     0          
H102     H      0.957100000000     0.827500000000     0.456300000000     0          
C103     C      0.690380000000     0.632950000000     0.484390000000     0          
H104     H      0.699100000000     0.601400000000     0.486800000000     0          
H105     H      0.755200000000     0.657400000000     0.475400000000     0          
C106     C      0.276330000000     0.333800000000     0.477660000000     0          
C107     C      0.037970000000     0.098690000000     0.453200000000     0          
C108     C      0.023370000000     0.146060000000     0.455200000000     0          
H109     H      0.042900000000     0.172500000000     0.456300000000     0          
C110     C      0.309620000000     0.367050000000     0.484390000000     0          
H111     H      0.300900000000     0.398600000000     0.486800000000     0          
H112     H      0.244800000000     0.342600000000     0.475400000000     0          
C113     C      0.477660000000     0.723670000000     0.666200000000     0          
C114     C      0.453200000000     0.962030000000     0.901310000000     0          
C115     C      0.455200000000     0.976630000000     0.853940000000     0          
H116     H      0.456300000000     0.957100000000     0.827500000000     0          
C117     C      0.484390000000     0.690380000000     0.632950000000     0          
H118     H      0.486800000000     0.699100000000     0.601400000000     0          
H119     H      0.475400000000     0.755200000000     0.657400000000     0          
C120     C      0.477660000000     0.276330000000     0.333800000000     0          
C121     C      0.453200000000     0.037970000000     0.098690000000     0          
C122     C      0.455200000000     0.023370000000     0.146060000000     0          
H123     H      0.456300000000     0.042900000000     0.172500000000     0          
C124     C      0.484390000000     0.309620000000     0.367050000000     0          
H125     H      0.486800000000     0.300900000000     0.398600000000     0          
H126     H      0.475400000000     0.244800000000     0.342600000000     0          
C127     C      0.477660000000     0.666200000000     0.276330000000     0          
C128     C      0.453200000000     0.901310000000     0.037970000000     0          
C129     C      0.455200000000     0.853940000000     0.023370000000     0          
H130     H      0.456300000000     0.827500000000     0.042900000000     0          
C131     C      0.484390000000     0.632950000000     0.309620000000     0          
H132     H      0.486800000000     0.601400000000     0.300900000000     0          
H133     H      0.475400000000     0.657400000000     0.244800000000     0          
C134     C      0.477660000000     0.333800000000     0.723670000000     0          
C135     C      0.453200000000     0.098690000000     0.962030000000     0          
C136     C      0.455200000000     0.146060000000     0.976630000000     0          
H137     H      0.456300000000     0.172500000000     0.957100000000     0          
C138     C      0.484390000000     0.367050000000     0.690380000000     0          
H139     H      0.486800000000     0.398600000000     0.699100000000     0          
H140     H      0.475400000000     0.342600000000     0.755200000000     0          
C141     C      0.333800000000     0.723670000000     0.477660000000     0          
C142     C      0.098690000000     0.962030000000     0.453200000000     0          
C143     C      0.146060000000     0.976630000000     0.455200000000     0          
H144     H      0.172500000000     0.957100000000     0.456300000000     0          
C145     C      0.367050000000     0.690380000000     0.484390000000     0          
H146     H      0.398600000000     0.699100000000     0.486800000000     0          
H147     H      0.342600000000     0.755200000000     0.475400000000     0          
C148     C      0.666200000000     0.276330000000     0.477660000000     0          
C149     C      0.901310000000     0.037970000000     0.453200000000     0          
C150     C      0.853940000000     0.023370000000     0.455200000000     0          
H151     H      0.827500000000     0.042900000000     0.456300000000     0          
C152     C      0.632950000000     0.309620000000     0.484390000000     0          
H153     H      0.601400000000     0.300900000000     0.486800000000     0          
H154     H      0.657400000000     0.244800000000     0.475400000000     0          
C155     C      0.723670000000     0.477660000000     0.333800000000     0          
C156     C      0.962030000000     0.453200000000     0.098690000000     0          
C157     C      0.976630000000     0.455200000000     0.146060000000     0          
H158     H      0.957100000000     0.456300000000     0.172500000000     0          
C159     C      0.690380000000     0.484390000000     0.367050000000     0          
H160     H      0.699100000000     0.486800000000     0.398600000000     0          
H161     H      0.755200000000     0.475400000000     0.342600000000     0          
C162     C      0.276330000000     0.477660000000     0.666200000000     0          
C163     C      0.037970000000     0.453200000000     0.901310000000     0          
C164     C      0.023370000000     0.455200000000     0.853940000000     0          
H165     H      0.042900000000     0.456300000000     0.827500000000     0          
C166     C      0.309620000000     0.484390000000     0.632950000000     0          
H167     H      0.300900000000     0.486800000000     0.601400000000     0          
H168     H      0.244800000000     0.475400000000     0.657400000000     0          
Zr169    Zr     0.500000000000     0.500000000000     0.414240000000     0          
Zr170    Zr     0.500000000000     0.500000000000     0.585760000000     0          
Zr171    Zr     0.414240000000     0.500000000000     0.500000000000     0          
Zr172    Zr     0.585760000000     0.500000000000     0.500000000000     0          
Zr173    Zr     0.500000000000     0.414240000000     0.500000000000     0          
Zr174    Zr     0.500000000000     0.585760000000     0.500000000000     0          
O175     O      0.567230000000     0.500000000000     0.377550000000     0          
O176     O      0.432770000000     0.500000000000     0.377550000000     0          
O177     O      0.432770000000     0.500000000000     0.622450000000     0          
O178     O      0.567230000000     0.500000000000     0.622450000000     0          
O179     O      0.377550000000     0.567230000000     0.500000000000     0          
O180     O      0.377550000000     0.432770000000     0.500000000000     0          
O181     O      0.622450000000     0.432770000000     0.500000000000     0          
O182     O      0.622450000000     0.567230000000     0.500000000000     0          
O183     O      0.500000000000     0.377550000000     0.567230000000     0          
O184     O      0.500000000000     0.377550000000     0.432770000000     0          
O185     O      0.500000000000     0.622450000000     0.432770000000     0          
O186     O      0.500000000000     0.622450000000     0.567230000000     0          
O187     O      0.500000000000     0.567230000000     0.622450000000     0          
O188     O      0.500000000000     0.432770000000     0.622450000000     0          
O189     O      0.500000000000     0.432770000000     0.377550000000     0          
O190     O      0.500000000000     0.567230000000     0.377550000000     0          
O191     O      0.567230000000     0.377550000000     0.500000000000     0          
O192     O      0.432770000000     0.377550000000     0.500000000000     0          
O193     O      0.432770000000     0.622450000000     0.500000000000     0          
O194     O      0.567230000000     0.622450000000     0.500000000000     0          
O195     O      0.377550000000     0.500000000000     0.432770000000     0          
O196     O      0.377550000000     0.500000000000     0.567230000000     0          
O197     O      0.622450000000     0.500000000000     0.567230000000     0          
O198     O      0.622450000000     0.500000000000     0.432770000000     0          
C199     C      0.608760000000     0.500000000000     0.391240000000     0          
C200     C      0.863110000000     0.500000000000     0.136890000000     0          
C201     C      0.829440000000     0.500000000000     0.170560000000     0          
C202     C      0.391240000000     0.500000000000     0.391240000000     0          
C203     C      0.136890000000     0.500000000000     0.136890000000     0          
C204     C      0.170560000000     0.500000000000     0.170560000000     0          
C205     C      0.391240000000     0.500000000000     0.608760000000     0          
C206     C      0.136890000000     0.500000000000     0.863110000000     0          
C207     C      0.170560000000     0.500000000000     0.829440000000     0          
C208     C      0.608760000000     0.500000000000     0.608760000000     0          
C209     C      0.863110000000     0.500000000000     0.863110000000     0          
C210     C      0.829440000000     0.500000000000     0.829440000000     0          
C211     C      0.391240000000     0.608760000000     0.500000000000     0          
C212     C      0.136890000000     0.863110000000     0.500000000000     0          
C213     C      0.170560000000     0.829440000000     0.500000000000     0          
C214     C      0.391240000000     0.391240000000     0.500000000000     0          
C215     C      0.136890000000     0.136890000000     0.500000000000     0          
C216     C      0.170560000000     0.170560000000     0.500000000000     0          
C217     C      0.608760000000     0.391240000000     0.500000000000     0          
C218     C      0.863110000000     0.136890000000     0.500000000000     0          
C219     C      0.829440000000     0.170560000000     0.500000000000     0          
C220     C      0.608760000000     0.608760000000     0.500000000000     0          
C221     C      0.863110000000     0.863110000000     0.500000000000     0          
C222     C      0.829440000000     0.829440000000     0.500000000000     0          
C223     C      0.500000000000     0.391240000000     0.608760000000     0          
C224     C      0.500000000000     0.136890000000     0.863110000000     0          
C225     C      0.500000000000     0.170560000000     0.829440000000     0          
C226     C      0.500000000000     0.391240000000     0.391240000000     0          
C227     C      0.500000000000     0.136890000000     0.136890000000     0          
C228     C      0.500000000000     0.170560000000     0.170560000000     0          
C229     C      0.500000000000     0.608760000000     0.391240000000     0          
C230     C      0.500000000000     0.863110000000     0.136890000000     0          
C231     C      0.500000000000     0.829440000000     0.170560000000     0          
C232     C      0.500000000000     0.608760000000     0.608760000000     0          
C233     C      0.500000000000     0.863110000000     0.863110000000     0          
C234     C      0.500000000000     0.829440000000     0.829440000000     0          
C235     C      0.644960000000     0.487610000000     0.355040000000     0          
C236     C      0.711700000000     0.474200000000     0.288300000000     0          
C237     C      0.747180000000     0.468300000000     0.252820000000     0          
C238     C      0.775940000000     0.464700000000     0.224060000000     0          
C239     C      0.811550000000     0.460790000000     0.188450000000     0          
C240     C      0.827260000000     0.419900000000     0.172740000000     0          
C241     C      0.862150000000     0.418400000000     0.137850000000     0          
C242     C      0.879260000000     0.460460000000     0.120740000000     0          
C243     C      0.915930000000     0.454400000000     0.084070000000     0          
H244     H      0.818780000000     0.529180000000     0.181220000000     0          
H245     H      0.815100000000     0.391900000000     0.184900000000     0          
H246     H      0.873500000000     0.389700000000     0.126500000000     0          
H247     H      0.873770000000     0.529180000000     0.126230000000     0          
C248     C      0.355040000000     0.487610000000     0.644960000000     0          
C249     C      0.288300000000     0.474200000000     0.711700000000     0          
C250     C      0.252820000000     0.468300000000     0.747180000000     0          
C251     C      0.224060000000     0.464700000000     0.775940000000     0          
C252     C      0.188450000000     0.460790000000     0.811550000000     0          
C253     C      0.172740000000     0.419900000000     0.827260000000     0          
C254     C      0.137850000000     0.418400000000     0.862150000000     0          
C255     C      0.120740000000     0.460460000000     0.879260000000     0          
C256     C      0.084070000000     0.454400000000     0.915930000000     0          
H257     H      0.181220000000     0.529180000000     0.818780000000     0          
H258     H      0.184900000000     0.391900000000     0.815100000000     0          
H259     H      0.126500000000     0.389700000000     0.873500000000     0          
H260     H      0.126230000000     0.529180000000     0.873770000000     0          
C261     C      0.355040000000     0.644960000000     0.487610000000     0          
C262     C      0.288300000000     0.711700000000     0.474200000000     0          
C263     C      0.252820000000     0.747180000000     0.468300000000     0          
C264     C      0.224060000000     0.775940000000     0.464700000000     0          
C265     C      0.188450000000     0.811550000000     0.460790000000     0          
C266     C      0.172740000000     0.827260000000     0.419900000000     0          
C267     C      0.137850000000     0.862150000000     0.418400000000     0          
C268     C      0.120740000000     0.879260000000     0.460460000000     0          
C269     C      0.084070000000     0.915930000000     0.454400000000     0          
H270     H      0.181220000000     0.818780000000     0.529180000000     0          
H271     H      0.184900000000     0.815100000000     0.391900000000     0          
H272     H      0.126500000000     0.873500000000     0.389700000000     0          
H273     H      0.126230000000     0.873770000000     0.529180000000     0          
C274     C      0.644960000000     0.355040000000     0.487610000000     0          
C275     C      0.711700000000     0.288300000000     0.474200000000     0          
C276     C      0.747180000000     0.252820000000     0.468300000000     0          
C277     C      0.775940000000     0.224060000000     0.464700000000     0          
C278     C      0.811550000000     0.188450000000     0.460790000000     0          
C279     C      0.827260000000     0.172740000000     0.419900000000     0          
C280     C      0.862150000000     0.137850000000     0.418400000000     0          
C281     C      0.879260000000     0.120740000000     0.460460000000     0          
C282     C      0.915930000000     0.084070000000     0.454400000000     0          
H283     H      0.818780000000     0.181220000000     0.529180000000     0          
H284     H      0.815100000000     0.184900000000     0.391900000000     0          
H285     H      0.873500000000     0.126500000000     0.389700000000     0          
H286     H      0.873770000000     0.126230000000     0.529180000000     0          
C287     C      0.487610000000     0.355040000000     0.644960000000     0          
C288     C      0.474200000000     0.288300000000     0.711700000000     0          
C289     C      0.468300000000     0.252820000000     0.747180000000     0          
C290     C      0.464700000000     0.224060000000     0.775940000000     0          
C291     C      0.460790000000     0.188450000000     0.811550000000     0          
C292     C      0.419900000000     0.172740000000     0.827260000000     0          
C293     C      0.418400000000     0.137850000000     0.862150000000     0          
C294     C      0.460460000000     0.120740000000     0.879260000000     0          
C295     C      0.454400000000     0.084070000000     0.915930000000     0          
H296     H      0.529180000000     0.181220000000     0.818780000000     0          
H297     H      0.391900000000     0.184900000000     0.815100000000     0          
H298     H      0.389700000000     0.126500000000     0.873500000000     0          
H299     H      0.529180000000     0.126230000000     0.873770000000     0          
C300     C      0.487610000000     0.644960000000     0.355040000000     0          
C301     C      0.474200000000     0.711700000000     0.288300000000     0          
C302     C      0.468300000000     0.747180000000     0.252820000000     0          
C303     C      0.464700000000     0.775940000000     0.224060000000     0          
C304     C      0.460790000000     0.811550000000     0.188450000000     0          
C305     C      0.419900000000     0.827260000000     0.172740000000     0          
C306     C      0.418400000000     0.862150000000     0.137850000000     0          
C307     C      0.460460000000     0.879260000000     0.120740000000     0          
C308     C      0.454400000000     0.915930000000     0.084070000000     0          
H309     H      0.529180000000     0.818780000000     0.181220000000     0          
H310     H      0.391900000000     0.815100000000     0.184900000000     0          
H311     H      0.389700000000     0.873500000000     0.126500000000     0          
H312     H      0.529180000000     0.873770000000     0.126230000000     0          
C313     C      0.487610000000     0.644960000000     0.644960000000     0          
C314     C      0.474200000000     0.711700000000     0.711700000000     0          
C315     C      0.468300000000     0.747180000000     0.747180000000     0          
C316     C      0.464700000000     0.775940000000     0.775940000000     0          
C317     C      0.460790000000     0.811550000000     0.811550000000     0          
C318     C      0.419900000000     0.827260000000     0.827260000000     0          
C319     C      0.418400000000     0.862150000000     0.862150000000     0          
C320     C      0.460460000000     0.879260000000     0.879260000000     0          
C321     C      0.454400000000     0.915930000000     0.915930000000     0          
H322     H      0.529180000000     0.818780000000     0.818780000000     0          
H323     H      0.391900000000     0.815100000000     0.815100000000     0          
H324     H      0.389700000000     0.873500000000     0.873500000000     0          
H325     H      0.529180000000     0.873770000000     0.873770000000     0          
C326     C      0.487610000000     0.355040000000     0.355040000000     0          
C327     C      0.474200000000     0.288300000000     0.288300000000     0          
C328     C      0.468300000000     0.252820000000     0.252820000000     0          
C329     C      0.464700000000     0.224060000000     0.224060000000     0          
C330     C      0.460790000000     0.188450000000     0.188450000000     0          
C331     C      0.419900000000     0.172740000000     0.172740000000     0          
C332     C      0.418400000000     0.137850000000     0.137850000000     0          
C333     C      0.460460000000     0.120740000000     0.120740000000     0          
C334     C      0.454400000000     0.084070000000     0.084070000000     0          
H335     H      0.529180000000     0.181220000000     0.181220000000     0          
H336     H      0.391900000000     0.184900000000     0.184900000000     0          
H337     H      0.389700000000     0.126500000000     0.126500000000     0          
H338     H      0.529180000000     0.126230000000     0.126230000000     0          
C339     C      0.355040000000     0.355040000000     0.487610000000     0          
C340     C      0.288300000000     0.288300000000     0.474200000000     0          
C341     C      0.252820000000     0.252820000000     0.468300000000     0          
C342     C      0.224060000000     0.224060000000     0.464700000000     0          
C343     C      0.188450000000     0.188450000000     0.460790000000     0          
C344     C      0.172740000000     0.172740000000     0.419900000000     0          
C345     C      0.137850000000     0.137850000000     0.418400000000     0          
C346     C      0.120740000000     0.120740000000     0.460460000000     0          
C347     C      0.084070000000     0.084070000000     0.454400000000     0          
H348     H      0.181220000000     0.181220000000     0.529180000000     0          
H349     H      0.184900000000     0.184900000000     0.391900000000     0          
H350     H      0.126500000000     0.126500000000     0.389700000000     0          
H351     H      0.126230000000     0.126230000000     0.529180000000     0          
C352     C      0.644960000000     0.644960000000     0.487610000000     0          
C353     C      0.711700000000     0.711700000000     0.474200000000     0          
C354     C      0.747180000000     0.747180000000     0.468300000000     0          
C355     C      0.775940000000     0.775940000000     0.464700000000     0          
C356     C      0.811550000000     0.811550000000     0.460790000000     0          
C357     C      0.827260000000     0.827260000000     0.419900000000     0          
C358     C      0.862150000000     0.862150000000     0.418400000000     0          
C359     C      0.879260000000     0.879260000000     0.460460000000     0          
C360     C      0.915930000000     0.915930000000     0.454400000000     0          
H361     H      0.818780000000     0.818780000000     0.529180000000     0          
H362     H      0.815100000000     0.815100000000     0.391900000000     0          
H363     H      0.873500000000     0.873500000000     0.389700000000     0          
H364     H      0.873770000000     0.873770000000     0.529180000000     0          
C365     C      0.355040000000     0.487610000000     0.355040000000     0          
C366     C      0.288300000000     0.474200000000     0.288300000000     0          
C367     C      0.252820000000     0.468300000000     0.252820000000     0          
C368     C      0.224060000000     0.464700000000     0.224060000000     0          
C369     C      0.188450000000     0.460790000000     0.188450000000     0          
C370     C      0.172740000000     0.419900000000     0.172740000000     0          
C371     C      0.137850000000     0.418400000000     0.137850000000     0          
C372     C      0.120740000000     0.460460000000     0.120740000000     0          
C373     C      0.084070000000     0.454400000000     0.084070000000     0          
H374     H      0.181220000000     0.529180000000     0.181220000000     0          
H375     H      0.184900000000     0.391900000000     0.184900000000     0          
H376     H      0.126500000000     0.389700000000     0.126500000000     0          
H377     H      0.126230000000     0.529180000000     0.126230000000     0          
C378     C      0.644960000000     0.487610000000     0.644960000000     0          
C379     C      0.711700000000     0.474200000000     0.711700000000     0          
C380     C      0.747180000000     0.468300000000     0.747180000000     0          
C381     C      0.775940000000     0.464700000000     0.775940000000     0          
C382     C      0.811550000000     0.460790000000     0.811550000000     0          
C383     C      0.827260000000     0.419900000000     0.827260000000     0          
C384     C      0.862150000000     0.418400000000     0.862150000000     0          
C385     C      0.879260000000     0.460460000000     0.879260000000     0          
C386     C      0.915930000000     0.454400000000     0.915930000000     0          
H387     H      0.818780000000     0.529180000000     0.818780000000     0          
H388     H      0.815100000000     0.391900000000     0.815100000000     0          
H389     H      0.873500000000     0.389700000000     0.873500000000     0          
H390     H      0.873770000000     0.529180000000     0.873770000000     0          
O391     O      0.542200000000     0.542200000000     0.457800000000     0          
O392     O      0.457800000000     0.457800000000     0.457800000000     0          
O393     O      0.457800000000     0.542200000000     0.542200000000     0          
O394     O      0.542200000000     0.457800000000     0.542200000000     0          
O395     O      0.542200000000     0.542200000000     0.542200000000     0          
O396     O      0.457800000000     0.457800000000     0.542200000000     0          
O397     O      0.542200000000     0.457800000000     0.457800000000     0          
O398     O      0.457800000000     0.542200000000     0.457800000000     0          
N399     N      0.928700000000     0.453200000000     0.000000000000     0          
H400     H      0.959100000000     0.453100000000     0.000000000000     0          
N401     N      0.071300000000     0.453200000000     0.000000000000     0          
H402     H      0.040900000000     0.453100000000     0.000000000000     0          
N403     N      0.000000000000     0.928700000000     0.453200000000     0          
N404     N      0.000000000000     0.071300000000     0.453200000000     0          
N405     N      0.453200000000     0.000000000000     0.928700000000     0          
H406     H      0.453100000000     0.000000000000     0.959100000000     0          
N407     N      0.453200000000     0.000000000000     0.071300000000     0          
H408     H      0.453100000000     0.000000000000     0.040900000000     0          
N409     N      0.453200000000     0.928700000000     0.000000000000     0          
H410     H      0.453100000000     0.959100000000     0.000000000000     0          
N411     N      0.453200000000     0.071300000000     0.000000000000     0          
H412     H      0.453100000000     0.040900000000     0.000000000000     0          
N413     N      0.071300000000     0.000000000000     0.453200000000     0          
N414     N      0.928700000000     0.000000000000     0.453200000000     0          
N415     N      0.000000000000     0.453200000000     0.071300000000     0          
H416     H      0.000000000000     0.453100000000     0.040900000000     0          
N417     N      0.000000000000     0.453200000000     0.928700000000     0          
H418     H      0.000000000000     0.453100000000     0.959100000000     0          
Ni419    Ni     0.000000000000     0.000000000000     0.453100000000     0          


