data_XUBGUY

_audit_creation_method RASPA-1.0
_audit_creation_date 2020-11-2
_audit_author_name 'Rocio Bueno-Perez'

_cell_length_a    15.228
_cell_length_b    15.228
_cell_length_c    28.791
_cell_angle_alpha 90
_cell_angle_beta  90
_cell_angle_gamma 90
_cell_volume      6676.4

_symmetry_cell_setting          triclinic
_symmetry_space_group_name_Hall 'P 1'
_symmetry_space_group_name_H-M  'P 1'
_symmetry_Int_Tables_number     1

_symmetry_equiv_pos_as_xyz 'x,y,z'

loop_
_atom_site_label
_atom_site_type_symbol
_atom_site_fract_x
_atom_site_fract_y
_atom_site_fract_z
_atom_site_charge
O1       O      0.781090000000     0.068580000000     0.429330000000     0          
O2       O      0.881580000000     0.033730000000     0.375160000000     0          
O3       O      0.896780000000     0.946240000000     0.541380000000     0          
C4       C      0.678500000000     0.992700000000     0.280070000000     0          
H5       H      0.689540000000     0.955490000000     0.246210000000     0          
C6       C      0.747300000000     0.004800000000     0.310680000000     0          
H7       H      0.815600000000     0.979460000000     0.301570000000     0          
C8       C      0.733450000000     0.047760000000     0.352530000000     0          
C9       C      0.651500000000     0.081700000000     0.361210000000     0          
H10      H      0.638570000000     0.119300000000     0.394760000000     0          
C11      C      0.584400000000     0.070800000000     0.329710000000     0          
H12      H      0.517070000000     0.100560000000     0.336910000000     0          
C13      C      0.595980000000     0.024130000000     0.288850000000     0          
C14      C      0.803630000000     0.051310000000     0.388180000000     0          
H15      H      0.348850000000     0.708060000000     0.000000000000     0          
H16      H      0.200330000000     0.407570000000     0.000220000000     0          
O17      O      0.281090000000     0.568580000000     0.929330000000     0          
O18      O      0.381580000000     0.533730000000     0.875160000000     0          
O19      O      0.396780000000     0.446240000000     0.041380000000     0          
C20      C      0.178500000000     0.492700000000     0.780070000000     0          
H21      H      0.189540000000     0.455490000000     0.746210000000     0          
C22      C      0.247300000000     0.504800000000     0.810680000000     0          
H23      H      0.315600000000     0.479460000000     0.801570000000     0          
C24      C      0.233450000000     0.547760000000     0.852530000000     0          
C25      C      0.151500000000     0.581700000000     0.861210000000     0          
H26      H      0.138570000000     0.619300000000     0.894760000000     0          
C27      C      0.084400000000     0.570800000000     0.829710000000     0          
H28      H      0.017070000000     0.600560000000     0.836910000000     0          
C29      C      0.095980000000     0.524130000000     0.788850000000     0          
C30      C      0.303630000000     0.551310000000     0.888180000000     0          
H31      H      0.848850000000     0.208060000000     0.500000000000     0          
H32      H      0.700330000000     0.907570000000     0.500220000000     0          
O33      O      0.218910000000     0.931420000000     0.429330000000     0          
O34      O      0.118420000000     0.966270000000     0.375160000000     0          
O35      O      0.103220000000     0.053760000000     0.541380000000     0          
C36      C      0.321500000000     0.007300000000     0.280070000000     0          
H37      H      0.310460000000     0.044510000000     0.246210000000     0          
C38      C      0.252700000000     0.995200000000     0.310680000000     0          
H39      H      0.184400000000     0.020540000000     0.301570000000     0          
C40      C      0.266550000000     0.952240000000     0.352530000000     0          
C41      C      0.348500000000     0.918300000000     0.361210000000     0          
H42      H      0.361430000000     0.880700000000     0.394760000000     0          
C43      C      0.415600000000     0.929200000000     0.329710000000     0          
H44      H      0.482930000000     0.899440000000     0.336910000000     0          
C45      C      0.404020000000     0.975870000000     0.288850000000     0          
C46      C      0.196370000000     0.948690000000     0.388180000000     0          
H47      H      0.651150000000     0.291940000000     0.000000000000     0          
H48      H      0.799670000000     0.592430000000     0.000220000000     0          
O49      O      0.718910000000     0.431420000000     0.929330000000     0          
O50      O      0.618420000000     0.466270000000     0.875160000000     0          
O51      O      0.603220000000     0.553760000000     0.041380000000     0          
C52      C      0.821500000000     0.507300000000     0.780070000000     0          
H53      H      0.810460000000     0.544510000000     0.746210000000     0          
C54      C      0.752700000000     0.495200000000     0.810680000000     0          
H55      H      0.684400000000     0.520540000000     0.801570000000     0          
C56      C      0.766550000000     0.452240000000     0.852530000000     0          
C57      C      0.848500000000     0.418300000000     0.861210000000     0          
H58      H      0.861430000000     0.380700000000     0.894760000000     0          
C59      C      0.915600000000     0.429200000000     0.829710000000     0          
H60      H      0.982930000000     0.399440000000     0.836910000000     0          
C61      C      0.904020000000     0.475870000000     0.788850000000     0          
C62      C      0.696370000000     0.448690000000     0.888180000000     0          
H63      H      0.151150000000     0.791940000000     0.500000000000     0          
H64      H      0.299670000000     0.092430000000     0.500220000000     0          
O65      O      0.931420000000     0.781090000000     0.429330000000     0          
O66      O      0.966270000000     0.881580000000     0.375160000000     0          
O67      O      0.053760000000     0.896780000000     0.541380000000     0          
C68      C      0.007300000000     0.678500000000     0.280070000000     0          
H69      H      0.044510000000     0.689540000000     0.246210000000     0          
C70      C      0.995200000000     0.747300000000     0.310680000000     0          
H71      H      0.020540000000     0.815600000000     0.301570000000     0          
C72      C      0.952240000000     0.733450000000     0.352530000000     0          
C73      C      0.918300000000     0.651500000000     0.361210000000     0          
H74      H      0.880700000000     0.638570000000     0.394760000000     0          
C75      C      0.929200000000     0.584400000000     0.329710000000     0          
H76      H      0.899440000000     0.517070000000     0.336910000000     0          
C77      C      0.975870000000     0.595980000000     0.288850000000     0          
C78      C      0.948690000000     0.803630000000     0.388180000000     0          
H79      H      0.291940000000     0.348850000000     0.000000000000     0          
H80      H      0.592430000000     0.200330000000     0.000220000000     0          
O81      O      0.431420000000     0.281090000000     0.929330000000     0          
O82      O      0.466270000000     0.381580000000     0.875160000000     0          
O83      O      0.553760000000     0.396780000000     0.041380000000     0          
C84      C      0.507300000000     0.178500000000     0.780070000000     0          
H85      H      0.544510000000     0.189540000000     0.746210000000     0          
C86      C      0.495200000000     0.247300000000     0.810680000000     0          
H87      H      0.520540000000     0.315600000000     0.801570000000     0          
C88      C      0.452240000000     0.233450000000     0.852530000000     0          
C89      C      0.418300000000     0.151500000000     0.861210000000     0          
H90      H      0.380700000000     0.138570000000     0.894760000000     0          
C91      C      0.429200000000     0.084400000000     0.829710000000     0          
H92      H      0.399440000000     0.017070000000     0.836910000000     0          
C93      C      0.475870000000     0.095980000000     0.788850000000     0          
C94      C      0.448690000000     0.303630000000     0.888180000000     0          
H95      H      0.791940000000     0.848850000000     0.500000000000     0          
H96      H      0.092430000000     0.700330000000     0.500220000000     0          
O97      O      0.068580000000     0.218910000000     0.429330000000     0          
O98      O      0.033730000000     0.118420000000     0.375160000000     0          
O99      O      0.946240000000     0.103220000000     0.541380000000     0          
C100     C      0.992700000000     0.321500000000     0.280070000000     0          
H101     H      0.955490000000     0.310460000000     0.246210000000     0          
C102     C      0.004800000000     0.252700000000     0.310680000000     0          
H103     H      0.979460000000     0.184400000000     0.301570000000     0          
C104     C      0.047760000000     0.266550000000     0.352530000000     0          
C105     C      0.081700000000     0.348500000000     0.361210000000     0          
H106     H      0.119300000000     0.361430000000     0.394760000000     0          
C107     C      0.070800000000     0.415600000000     0.329710000000     0          
H108     H      0.100560000000     0.482930000000     0.336910000000     0          
C109     C      0.024130000000     0.404020000000     0.288850000000     0          
C110     C      0.051310000000     0.196370000000     0.388180000000     0          
H111     H      0.708060000000     0.651150000000     0.000000000000     0          
H112     H      0.407570000000     0.799670000000     0.000220000000     0          
O113     O      0.568580000000     0.718910000000     0.929330000000     0          
O114     O      0.533730000000     0.618420000000     0.875160000000     0          
O115     O      0.446240000000     0.603220000000     0.041380000000     0          
C116     C      0.492700000000     0.821500000000     0.780070000000     0          
H117     H      0.455490000000     0.810460000000     0.746210000000     0          
C118     C      0.504800000000     0.752700000000     0.810680000000     0          
H119     H      0.479460000000     0.684400000000     0.801570000000     0          
C120     C      0.547760000000     0.766550000000     0.852530000000     0          
C121     C      0.581700000000     0.848500000000     0.861210000000     0          
H122     H      0.619300000000     0.861430000000     0.894760000000     0          
C123     C      0.570800000000     0.915600000000     0.829710000000     0          
H124     H      0.600560000000     0.982930000000     0.836910000000     0          
C125     C      0.524130000000     0.904020000000     0.788850000000     0          
C126     C      0.551310000000     0.696370000000     0.888180000000     0          
H127     H      0.208060000000     0.151150000000     0.500000000000     0          
H128     H      0.907570000000     0.299670000000     0.500220000000     0          
O129     O      0.218910000000     0.931420000000     0.570670000000     0          
O130     O      0.118420000000     0.966270000000     0.624840000000     0          
O131     O      0.103220000000     0.053760000000     0.458620000000     0          
C132     C      0.321500000000     0.007300000000     0.719930000000     0          
H133     H      0.310460000000     0.044510000000     0.753790000000     0          
C134     C      0.252700000000     0.995200000000     0.689320000000     0          
H135     H      0.184400000000     0.020540000000     0.698430000000     0          
C136     C      0.266550000000     0.952240000000     0.647470000000     0          
C137     C      0.348500000000     0.918300000000     0.638790000000     0          
H138     H      0.361430000000     0.880700000000     0.605240000000     0          
C139     C      0.415600000000     0.929200000000     0.670290000000     0          
H140     H      0.482930000000     0.899440000000     0.663090000000     0          
C141     C      0.404020000000     0.975870000000     0.711150000000     0          
C142     C      0.196370000000     0.948690000000     0.611820000000     0          
O145     O      0.718910000000     0.431420000000     0.070670000000     0          
O146     O      0.618420000000     0.466270000000     0.124840000000     0          
O147     O      0.603220000000     0.553760000000     0.958620000000     0          
C148     C      0.821500000000     0.507300000000     0.219930000000     0          
H149     H      0.810460000000     0.544510000000     0.253790000000     0          
C150     C      0.752700000000     0.495200000000     0.189320000000     0          
H151     H      0.684400000000     0.520540000000     0.198430000000     0          
C152     C      0.766550000000     0.452240000000     0.147470000000     0          
C153     C      0.848500000000     0.418300000000     0.138790000000     0          
H154     H      0.861430000000     0.380700000000     0.105240000000     0          
C155     C      0.915600000000     0.429200000000     0.170290000000     0          
H156     H      0.982930000000     0.399440000000     0.163090000000     0          
C157     C      0.904020000000     0.475870000000     0.211150000000     0          
C158     C      0.696370000000     0.448690000000     0.111820000000     0          
O161     O      0.781090000000     0.068580000000     0.570670000000     0          
O162     O      0.881580000000     0.033730000000     0.624840000000     0          
O163     O      0.896780000000     0.946240000000     0.458620000000     0          
C164     C      0.678500000000     0.992700000000     0.719930000000     0          
H165     H      0.689540000000     0.955490000000     0.753790000000     0          
C166     C      0.747300000000     0.004800000000     0.689320000000     0          
H167     H      0.815600000000     0.979460000000     0.698430000000     0          
C168     C      0.733450000000     0.047760000000     0.647470000000     0          
C169     C      0.651500000000     0.081700000000     0.638790000000     0          
H170     H      0.638570000000     0.119300000000     0.605240000000     0          
C171     C      0.584400000000     0.070800000000     0.670290000000     0          
H172     H      0.517070000000     0.100560000000     0.663090000000     0          
C173     C      0.595980000000     0.024130000000     0.711150000000     0          
C174     C      0.803630000000     0.051310000000     0.611820000000     0          
O177     O      0.281090000000     0.568580000000     0.070670000000     0          
O178     O      0.381580000000     0.533730000000     0.124840000000     0          
O179     O      0.396780000000     0.446240000000     0.958620000000     0          
C180     C      0.178500000000     0.492700000000     0.219930000000     0          
H181     H      0.189540000000     0.455490000000     0.253790000000     0          
C182     C      0.247300000000     0.504800000000     0.189320000000     0          
H183     H      0.315600000000     0.479460000000     0.198430000000     0          
C184     C      0.233450000000     0.547760000000     0.147470000000     0          
C185     C      0.151500000000     0.581700000000     0.138790000000     0          
H186     H      0.138570000000     0.619300000000     0.105240000000     0          
C187     C      0.084400000000     0.570800000000     0.170290000000     0          
H188     H      0.017070000000     0.600560000000     0.163090000000     0          
C189     C      0.095980000000     0.524130000000     0.211150000000     0          
C190     C      0.303630000000     0.551310000000     0.111820000000     0          
O193     O      0.068580000000     0.218910000000     0.570670000000     0          
O194     O      0.033730000000     0.118420000000     0.624840000000     0          
O195     O      0.946240000000     0.103220000000     0.458620000000     0          
C196     C      0.992700000000     0.321500000000     0.719930000000     0          
H197     H      0.955490000000     0.310460000000     0.753790000000     0          
C198     C      0.004800000000     0.252700000000     0.689320000000     0          
H199     H      0.979460000000     0.184400000000     0.698430000000     0          
C200     C      0.047760000000     0.266550000000     0.647470000000     0          
C201     C      0.081700000000     0.348500000000     0.638790000000     0          
H202     H      0.119300000000     0.361430000000     0.605240000000     0          
C203     C      0.070800000000     0.415600000000     0.670290000000     0          
H204     H      0.100560000000     0.482930000000     0.663090000000     0          
C205     C      0.024130000000     0.404020000000     0.711150000000     0          
C206     C      0.051310000000     0.196370000000     0.611820000000     0          
O209     O      0.568580000000     0.718910000000     0.070670000000     0          
O210     O      0.533730000000     0.618420000000     0.124840000000     0          
O211     O      0.446240000000     0.603220000000     0.958620000000     0          
C212     C      0.492700000000     0.821500000000     0.219930000000     0          
H213     H      0.455490000000     0.810460000000     0.253790000000     0          
C214     C      0.504800000000     0.752700000000     0.189320000000     0          
H215     H      0.479460000000     0.684400000000     0.198430000000     0          
C216     C      0.547760000000     0.766550000000     0.147470000000     0          
C217     C      0.581700000000     0.848500000000     0.138790000000     0          
H218     H      0.619300000000     0.861430000000     0.105240000000     0          
C219     C      0.570800000000     0.915600000000     0.170290000000     0          
H220     H      0.600560000000     0.982930000000     0.163090000000     0          
C221     C      0.524130000000     0.904020000000     0.211150000000     0          
C222     C      0.551310000000     0.696370000000     0.111820000000     0          
O225     O      0.931420000000     0.781090000000     0.570670000000     0          
O226     O      0.966270000000     0.881580000000     0.624840000000     0          
O227     O      0.053760000000     0.896780000000     0.458620000000     0          
C228     C      0.007300000000     0.678500000000     0.719930000000     0          
H229     H      0.044510000000     0.689540000000     0.753790000000     0          
C230     C      0.995200000000     0.747300000000     0.689320000000     0          
H231     H      0.020540000000     0.815600000000     0.698430000000     0          
C232     C      0.952240000000     0.733450000000     0.647470000000     0          
C233     C      0.918300000000     0.651500000000     0.638790000000     0          
H234     H      0.880700000000     0.638570000000     0.605240000000     0          
C235     C      0.929200000000     0.584400000000     0.670290000000     0          
H236     H      0.899440000000     0.517070000000     0.663090000000     0          
C237     C      0.975870000000     0.595980000000     0.711150000000     0          
C238     C      0.948690000000     0.803630000000     0.611820000000     0          
O241     O      0.431420000000     0.281090000000     0.070670000000     0          
O242     O      0.466270000000     0.381580000000     0.124840000000     0          
O243     O      0.553760000000     0.396780000000     0.958620000000     0          
C244     C      0.507300000000     0.178500000000     0.219930000000     0          
H245     H      0.544510000000     0.189540000000     0.253790000000     0          
C246     C      0.495200000000     0.247300000000     0.189320000000     0          
H247     H      0.520540000000     0.315600000000     0.198430000000     0          
C248     C      0.452240000000     0.233450000000     0.147470000000     0          
C249     C      0.418300000000     0.151500000000     0.138790000000     0          
H250     H      0.380700000000     0.138570000000     0.105240000000     0          
C251     C      0.429200000000     0.084400000000     0.170290000000     0          
H252     H      0.399440000000     0.017070000000     0.163090000000     0          
C253     C      0.475870000000     0.095980000000     0.211150000000     0          
C254     C      0.448690000000     0.303630000000     0.111820000000     0          
Zr257    Zr     0.843210000000     0.050070000000     0.500000000000     0          
O258     O      0.716700000000     0.978600000000     0.500000000000     0          
O259     O      0.781700000000     0.179700000000     0.500000000000     0          
Zr260    Zr     0.343210000000     0.550070000000     0.000000000000     0          
O261     O      0.216700000000     0.478600000000     0.000000000000     0          
O262     O      0.281700000000     0.679700000000     0.000000000000     0          
Zr263    Zr     0.156790000000     0.949930000000     0.500000000000     0          
O264     O      0.283300000000     0.021400000000     0.500000000000     0          
O265     O      0.218300000000     0.820300000000     0.500000000000     0          
Zr266    Zr     0.656790000000     0.449930000000     0.000000000000     0          
O267     O      0.783300000000     0.521400000000     0.000000000000     0          
O268     O      0.718300000000     0.320300000000     0.000000000000     0          
Zr269    Zr     0.949930000000     0.843210000000     0.500000000000     0          
O270     O      0.021400000000     0.716700000000     0.500000000000     0          
O271     O      0.820300000000     0.781700000000     0.500000000000     0          
Zr272    Zr     0.449930000000     0.343210000000     0.000000000000     0          
O273     O      0.521400000000     0.216700000000     0.000000000000     0          
O274     O      0.320300000000     0.281700000000     0.000000000000     0          
Zr275    Zr     0.050070000000     0.156790000000     0.500000000000     0          
O276     O      0.978600000000     0.283300000000     0.500000000000     0          
O277     O      0.179700000000     0.218300000000     0.500000000000     0          
Zr278    Zr     0.550070000000     0.656790000000     0.000000000000     0          
O279     O      0.478600000000     0.783300000000     0.000000000000     0          
O280     O      0.679700000000     0.718300000000     0.000000000000     0          
Zr281    Zr     0.000000000000     0.000000000000     0.414560000000     0          
Zr282    Zr     0.500000000000     0.500000000000     0.914560000000     0          
Zr283    Zr     0.000000000000     0.000000000000     0.585430000000     0          
Zr284    Zr     0.500000000000     0.500000000000     0.085440000000     0          
Si285    Si     0.500000000000     0.000000000000     0.250000000000     0          
Si286    Si     0.000000000000     0.500000000000     0.250000000000     0          
Si287    Si     0.500000000000     0.000000000000     0.750000000000     0          
Si288    Si     0.000000000000     0.500000000000     0.750000000000     0          


