data_YESSUN

_audit_creation_method RASPA-1.0
_audit_creation_date 2020-4-3
_audit_author_name 'Rocio Bueno-Perez'

_cell_length_a    16.51
_cell_length_b    16.51
_cell_length_c    19.811
_cell_angle_alpha 90
_cell_angle_beta  90
_cell_angle_gamma 90
_cell_volume      5400.08

_symmetry_cell_setting          tetragonal
_symmetry_space_group_name_Hall 'P 1'
_symmetry_space_group_name_H-M  'P 1'
_symmetry_Int_Tables_number     1

_symmetry_equiv_pos_as_xyz 'x,y,z'

loop_
_atom_site_label
_atom_site_type_symbol
_atom_site_fract_x
_atom_site_fract_y
_atom_site_fract_z
_atom_site_charge
O1       O      0.941000000000     0.090000000000     0.065000000000     0          
O4       O      0.799000000000     0.042700000000     0.097500000000     0          
O5       O      0.889000000000     0.023600000000     0.171000000000     0          
N1       N      0.705000000000     0.860300000000     0.258000000000     0          
H1       H      0.656000000000     0.865000000000     0.228000000000     0          
N2       N      0.807000000000     0.770200000000     0.158000000000     0          
H2       H      0.766000000000     0.768400000000     0.121300000000     0          
C1       C      0.677000000000     0.865500000000     0.328000000000     0          
H3       H      0.640000000000     0.912200000000     0.334000000000     0          
H4       H      0.724000000000     0.873700000000     0.359000000000     0          
C2       C      0.760000000000     0.926600000000     0.239500000000     0          
H5       H      0.807000000000     0.926200000000     0.269900000000     0          
H6       H      0.732000000000     0.979000000000     0.245000000000     0          
C3       C      0.788000000000     0.918600000000     0.166400000000     0          
H7       H      0.739000000000     0.908500000000     0.138000000000     0          
C4       C      0.848000000000     0.849300000000     0.154000000000     0          
H8       H      0.872000000000     0.855700000000     0.108000000000     0          
H9       H      0.892000000000     0.851600000000     0.188000000000     0          
C5       C      0.863000000000     0.702300000000     0.145000000000     0          
H10      H      0.913000000000     0.708900000000     0.172000000000     0          
H11      H      0.878000000000     0.701100000000     0.097000000000     0          
C6       C      0.826000000000     0.997800000000     0.143400000000     0          
Zr1      Zr     0.854900000000     0.030800000000     0.000000000000     0          
O2       O      0.809000000000     0.162000000000     0.000000000000     0          
O3       O      0.754000000000     0.953000000000     0.000000000000     0          
Zr2      Zr     0.000000000000     0.000000000000     0.123400000000     0          
Ni1      Ni     0.750000000000     0.750000000000     0.250000000000     0          
O1       O      0.910000000000     0.941000000000     0.065000000000     0          
O4       O      0.957300000000     0.799000000000     0.097500000000     0          
O5       O      0.976400000000     0.889000000000     0.171000000000     0          
N1       N      0.139700000000     0.705000000000     0.258000000000     0          
H1       H      0.135000000000     0.656000000000     0.228000000000     0          
N2       N      0.229800000000     0.807000000000     0.158000000000     0          
H2       H      0.231600000000     0.766000000000     0.121300000000     0          
C1       C      0.134500000000     0.677000000000     0.328000000000     0          
H3       H      0.087800000000     0.640000000000     0.334000000000     0          
H4       H      0.126300000000     0.724000000000     0.359000000000     0          
C2       C      0.073400000000     0.760000000000     0.239500000000     0          
H5       H      0.073800000000     0.807000000000     0.269900000000     0          
H6       H      0.021000000000     0.732000000000     0.245000000000     0          
C3       C      0.081400000000     0.788000000000     0.166400000000     0          
H7       H      0.091500000000     0.739000000000     0.138000000000     0          
C4       C      0.150700000000     0.848000000000     0.154000000000     0          
H8       H      0.144300000000     0.872000000000     0.108000000000     0          
H9       H      0.148400000000     0.892000000000     0.188000000000     0          
C5       C      0.297700000000     0.863000000000     0.145000000000     0          
H10      H      0.291100000000     0.913000000000     0.172000000000     0          
H11      H      0.298900000000     0.878000000000     0.097000000000     0          
C6       C      0.002200000000     0.826000000000     0.143400000000     0          
Zr1      Zr     0.969200000000     0.854900000000     0.000000000000     0          
O2       O      0.838000000000     0.809000000000     0.000000000000     0          
O3       O      0.047000000000     0.754000000000     0.000000000000     0          
Ni1      Ni     0.250000000000     0.750000000000     0.250000000000     0          
O1       O      0.059000000000     0.910000000000     0.065000000000     0          
O4       O      0.201000000000     0.957300000000     0.097500000000     0          
O5       O      0.111000000000     0.976400000000     0.171000000000     0          
N1       N      0.295000000000     0.139700000000     0.258000000000     0          
H1       H      0.344000000000     0.135000000000     0.228000000000     0          
N2       N      0.193000000000     0.229800000000     0.158000000000     0          
H2       H      0.234000000000     0.231600000000     0.121300000000     0          
C1       C      0.323000000000     0.134500000000     0.328000000000     0          
H3       H      0.360000000000     0.087800000000     0.334000000000     0          
H4       H      0.276000000000     0.126300000000     0.359000000000     0          
C2       C      0.240000000000     0.073400000000     0.239500000000     0          
H5       H      0.193000000000     0.073800000000     0.269900000000     0          
H6       H      0.268000000000     0.021000000000     0.245000000000     0          
C3       C      0.212000000000     0.081400000000     0.166400000000     0          
H7       H      0.261000000000     0.091500000000     0.138000000000     0          
C4       C      0.152000000000     0.150700000000     0.154000000000     0          
H8       H      0.128000000000     0.144300000000     0.108000000000     0          
H9       H      0.108000000000     0.148400000000     0.188000000000     0          
C5       C      0.137000000000     0.297700000000     0.145000000000     0          
H10      H      0.087000000000     0.291100000000     0.172000000000     0          
H11      H      0.122000000000     0.298900000000     0.097000000000     0          
C6       C      0.174000000000     0.002200000000     0.143400000000     0          
Zr1      Zr     0.145100000000     0.969200000000     0.000000000000     0          
O2       O      0.191000000000     0.838000000000     0.000000000000     0          
O3       O      0.246000000000     0.047000000000     0.000000000000     0          
Ni1      Ni     0.250000000000     0.250000000000     0.250000000000     0          
O1       O      0.090000000000     0.059000000000     0.065000000000     0          
O4       O      0.042700000000     0.201000000000     0.097500000000     0          
O5       O      0.023600000000     0.111000000000     0.171000000000     0          
N1       N      0.860300000000     0.295000000000     0.258000000000     0          
H1       H      0.865000000000     0.344000000000     0.228000000000     0          
N2       N      0.770200000000     0.193000000000     0.158000000000     0          
H2       H      0.768400000000     0.234000000000     0.121300000000     0          
C1       C      0.865500000000     0.323000000000     0.328000000000     0          
H3       H      0.912200000000     0.360000000000     0.334000000000     0          
H4       H      0.873700000000     0.276000000000     0.359000000000     0          
C2       C      0.926600000000     0.240000000000     0.239500000000     0          
H5       H      0.926200000000     0.193000000000     0.269900000000     0          
H6       H      0.979000000000     0.268000000000     0.245000000000     0          
C3       C      0.918600000000     0.212000000000     0.166400000000     0          
H7       H      0.908500000000     0.261000000000     0.138000000000     0          
C4       C      0.849300000000     0.152000000000     0.154000000000     0          
H8       H      0.855700000000     0.128000000000     0.108000000000     0          
H9       H      0.851600000000     0.108000000000     0.188000000000     0          
C5       C      0.702300000000     0.137000000000     0.145000000000     0          
H10      H      0.708900000000     0.087000000000     0.172000000000     0          
H11      H      0.701100000000     0.122000000000     0.097000000000     0          
C6       C      0.997800000000     0.174000000000     0.143400000000     0          
Zr1      Zr     0.030800000000     0.145100000000     0.000000000000     0          
O2       O      0.162000000000     0.191000000000     0.000000000000     0          
O3       O      0.953000000000     0.246000000000     0.000000000000     0          
Ni1      Ni     0.750000000000     0.250000000000     0.250000000000     0          
O1       O      0.059000000000     0.910000000000     0.935000000000     0          
O4       O      0.201000000000     0.957300000000     0.902500000000     0          
O5       O      0.111000000000     0.976400000000     0.829000000000     0          
N1       N      0.295000000000     0.139700000000     0.742000000000     0          
H1       H      0.344000000000     0.135000000000     0.772000000000     0          
N2       N      0.193000000000     0.229800000000     0.842000000000     0          
H2       H      0.234000000000     0.231600000000     0.878700000000     0          
C1       C      0.323000000000     0.134500000000     0.672000000000     0          
H3       H      0.360000000000     0.087800000000     0.666000000000     0          
H4       H      0.276000000000     0.126300000000     0.641000000000     0          
C2       C      0.240000000000     0.073400000000     0.760500000000     0          
H5       H      0.193000000000     0.073800000000     0.730100000000     0          
H6       H      0.268000000000     0.021000000000     0.755000000000     0          
C3       C      0.212000000000     0.081400000000     0.833600000000     0          
H7       H      0.261000000000     0.091500000000     0.862000000000     0          
C4       C      0.152000000000     0.150700000000     0.846000000000     0          
H8       H      0.128000000000     0.144300000000     0.892000000000     0          
H9       H      0.108000000000     0.148400000000     0.812000000000     0          
C5       C      0.137000000000     0.297700000000     0.855000000000     0          
H10      H      0.087000000000     0.291100000000     0.828000000000     0          
H11      H      0.122000000000     0.298900000000     0.903000000000     0          
C6       C      0.174000000000     0.002200000000     0.856600000000     0          
Zr2      Zr     0.000000000000     0.000000000000     0.876600000000     0          
Ni1      Ni     0.250000000000     0.250000000000     0.750000000000     0          
O1       O      0.090000000000     0.059000000000     0.935000000000     0          
O4       O      0.042700000000     0.201000000000     0.902500000000     0          
O5       O      0.023600000000     0.111000000000     0.829000000000     0          
N1       N      0.860300000000     0.295000000000     0.742000000000     0          
H1       H      0.865000000000     0.344000000000     0.772000000000     0          
N2       N      0.770200000000     0.193000000000     0.842000000000     0          
H2       H      0.768400000000     0.234000000000     0.878700000000     0          
C1       C      0.865500000000     0.323000000000     0.672000000000     0          
H3       H      0.912200000000     0.360000000000     0.666000000000     0          
H4       H      0.873700000000     0.276000000000     0.641000000000     0          
C2       C      0.926600000000     0.240000000000     0.760500000000     0          
H5       H      0.926200000000     0.193000000000     0.730100000000     0          
H6       H      0.979000000000     0.268000000000     0.755000000000     0          
C3       C      0.918600000000     0.212000000000     0.833600000000     0          
H7       H      0.908500000000     0.261000000000     0.862000000000     0          
C4       C      0.849300000000     0.152000000000     0.846000000000     0          
H8       H      0.855700000000     0.128000000000     0.892000000000     0          
H9       H      0.851600000000     0.108000000000     0.812000000000     0          
C5       C      0.702300000000     0.137000000000     0.855000000000     0          
H10      H      0.708900000000     0.087000000000     0.828000000000     0          
H11      H      0.701100000000     0.122000000000     0.903000000000     0          
C6       C      0.997800000000     0.174000000000     0.856600000000     0          
Ni1      Ni     0.750000000000     0.250000000000     0.750000000000     0          
O1       O      0.941000000000     0.090000000000     0.935000000000     0          
O4       O      0.799000000000     0.042700000000     0.902500000000     0          
O5       O      0.889000000000     0.023600000000     0.829000000000     0          
N1       N      0.705000000000     0.860300000000     0.742000000000     0          
H1       H      0.656000000000     0.865000000000     0.772000000000     0          
N2       N      0.807000000000     0.770200000000     0.842000000000     0          
H2       H      0.766000000000     0.768400000000     0.878700000000     0          
C1       C      0.677000000000     0.865500000000     0.672000000000     0          
H3       H      0.640000000000     0.912200000000     0.666000000000     0          
H4       H      0.724000000000     0.873700000000     0.641000000000     0          
C2       C      0.760000000000     0.926600000000     0.760500000000     0          
H5       H      0.807000000000     0.926200000000     0.730100000000     0          
H6       H      0.732000000000     0.979000000000     0.755000000000     0          
C3       C      0.788000000000     0.918600000000     0.833600000000     0          
H7       H      0.739000000000     0.908500000000     0.862000000000     0          
C4       C      0.848000000000     0.849300000000     0.846000000000     0          
H8       H      0.872000000000     0.855700000000     0.892000000000     0          
H9       H      0.892000000000     0.851600000000     0.812000000000     0          
C5       C      0.863000000000     0.702300000000     0.855000000000     0          
H10      H      0.913000000000     0.708900000000     0.828000000000     0          
H11      H      0.878000000000     0.701100000000     0.903000000000     0          
C6       C      0.826000000000     0.997800000000     0.856600000000     0          
Ni1      Ni     0.750000000000     0.750000000000     0.750000000000     0          
O1       O      0.910000000000     0.941000000000     0.935000000000     0          
O4       O      0.957300000000     0.799000000000     0.902500000000     0          
O5       O      0.976400000000     0.889000000000     0.829000000000     0          
N1       N      0.139700000000     0.705000000000     0.742000000000     0          
H1       H      0.135000000000     0.656000000000     0.772000000000     0          
N2       N      0.229800000000     0.807000000000     0.842000000000     0          
H2       H      0.231600000000     0.766000000000     0.878700000000     0          
C1       C      0.134500000000     0.677000000000     0.672000000000     0          
H3       H      0.087800000000     0.640000000000     0.666000000000     0          
H4       H      0.126300000000     0.724000000000     0.641000000000     0          
C2       C      0.073400000000     0.760000000000     0.760500000000     0          
H5       H      0.073800000000     0.807000000000     0.730100000000     0          
H6       H      0.021000000000     0.732000000000     0.755000000000     0          
C3       C      0.081400000000     0.788000000000     0.833600000000     0          
H7       H      0.091500000000     0.739000000000     0.862000000000     0          
C4       C      0.150700000000     0.848000000000     0.846000000000     0          
H8       H      0.144300000000     0.872000000000     0.892000000000     0          
H9       H      0.148400000000     0.892000000000     0.812000000000     0          
C5       C      0.297700000000     0.863000000000     0.855000000000     0          
H10      H      0.291100000000     0.913000000000     0.828000000000     0          
H11      H      0.298900000000     0.878000000000     0.903000000000     0          
C6       C      0.002200000000     0.826000000000     0.856600000000     0          
Ni1      Ni     0.250000000000     0.750000000000     0.750000000000     0          
O1       O      0.441000000000     0.590000000000     0.565000000000     0          
O4       O      0.299000000000     0.542700000000     0.597500000000     0          
O5       O      0.389000000000     0.523600000000     0.671000000000     0          
N1       N      0.205000000000     0.360300000000     0.758000000000     0          
H1       H      0.156000000000     0.365000000000     0.728000000000     0          
N2       N      0.307000000000     0.270200000000     0.658000000000     0          
H2       H      0.266000000000     0.268400000000     0.621300000000     0          
C1       C      0.177000000000     0.365500000000     0.828000000000     0          
H3       H      0.140000000000     0.412200000000     0.834000000000     0          
H4       H      0.224000000000     0.373700000000     0.859000000000     0          
C2       C      0.260000000000     0.426600000000     0.739500000000     0          
H5       H      0.307000000000     0.426200000000     0.769900000000     0          
H6       H      0.232000000000     0.479000000000     0.745000000000     0          
C3       C      0.288000000000     0.418600000000     0.666400000000     0          
H7       H      0.239000000000     0.408500000000     0.638000000000     0          
C4       C      0.348000000000     0.349300000000     0.654000000000     0          
H8       H      0.372000000000     0.355700000000     0.608000000000     0          
H9       H      0.392000000000     0.351600000000     0.688000000000     0          
C5       C      0.363000000000     0.202300000000     0.645000000000     0          
H10      H      0.413000000000     0.208900000000     0.672000000000     0          
H11      H      0.378000000000     0.201100000000     0.597000000000     0          
C6       C      0.326000000000     0.497800000000     0.643400000000     0          
Zr1      Zr     0.354900000000     0.530800000000     0.500000000000     0          
O2       O      0.309000000000     0.662000000000     0.500000000000     0          
O3       O      0.254000000000     0.453000000000     0.500000000000     0          
Zr2      Zr     0.500000000000     0.500000000000     0.623400000000     0          
O1       O      0.410000000000     0.441000000000     0.565000000000     0          
O4       O      0.457300000000     0.299000000000     0.597500000000     0          
O5       O      0.476400000000     0.389000000000     0.671000000000     0          
N1       N      0.639700000000     0.205000000000     0.758000000000     0          
H1       H      0.635000000000     0.156000000000     0.728000000000     0          
N2       N      0.729800000000     0.307000000000     0.658000000000     0          
H2       H      0.731600000000     0.266000000000     0.621300000000     0          
C1       C      0.634500000000     0.177000000000     0.828000000000     0          
H3       H      0.587800000000     0.140000000000     0.834000000000     0          
H4       H      0.626300000000     0.224000000000     0.859000000000     0          
C2       C      0.573400000000     0.260000000000     0.739500000000     0          
H5       H      0.573800000000     0.307000000000     0.769900000000     0          
H6       H      0.521000000000     0.232000000000     0.745000000000     0          
C3       C      0.581400000000     0.288000000000     0.666400000000     0          
H7       H      0.591500000000     0.239000000000     0.638000000000     0          
C4       C      0.650700000000     0.348000000000     0.654000000000     0          
H8       H      0.644300000000     0.372000000000     0.608000000000     0          
H9       H      0.648400000000     0.392000000000     0.688000000000     0          
C5       C      0.797700000000     0.363000000000     0.645000000000     0          
H10      H      0.791100000000     0.413000000000     0.672000000000     0          
H11      H      0.798900000000     0.378000000000     0.597000000000     0          
C6       C      0.502200000000     0.326000000000     0.643400000000     0          
Zr1      Zr     0.469200000000     0.354900000000     0.500000000000     0          
O2       O      0.338000000000     0.309000000000     0.500000000000     0          
O3       O      0.547000000000     0.254000000000     0.500000000000     0          
O1       O      0.559000000000     0.410000000000     0.565000000000     0          
O4       O      0.701000000000     0.457300000000     0.597500000000     0          
O5       O      0.611000000000     0.476400000000     0.671000000000     0          
N1       N      0.795000000000     0.639700000000     0.758000000000     0          
H1       H      0.844000000000     0.635000000000     0.728000000000     0          
N2       N      0.693000000000     0.729800000000     0.658000000000     0          
H2       H      0.734000000000     0.731600000000     0.621300000000     0          
C1       C      0.823000000000     0.634500000000     0.828000000000     0          
H3       H      0.860000000000     0.587800000000     0.834000000000     0          
H4       H      0.776000000000     0.626300000000     0.859000000000     0          
C2       C      0.740000000000     0.573400000000     0.739500000000     0          
H5       H      0.693000000000     0.573800000000     0.769900000000     0          
H6       H      0.768000000000     0.521000000000     0.745000000000     0          
C3       C      0.712000000000     0.581400000000     0.666400000000     0          
H7       H      0.761000000000     0.591500000000     0.638000000000     0          
C4       C      0.652000000000     0.650700000000     0.654000000000     0          
H8       H      0.628000000000     0.644300000000     0.608000000000     0          
H9       H      0.608000000000     0.648400000000     0.688000000000     0          
C5       C      0.637000000000     0.797700000000     0.645000000000     0          
H10      H      0.587000000000     0.791100000000     0.672000000000     0          
H11      H      0.622000000000     0.798900000000     0.597000000000     0          
C6       C      0.674000000000     0.502200000000     0.643400000000     0          
Zr1      Zr     0.645100000000     0.469200000000     0.500000000000     0          
O2       O      0.691000000000     0.338000000000     0.500000000000     0          
O3       O      0.746000000000     0.547000000000     0.500000000000     0          
O1       O      0.590000000000     0.559000000000     0.565000000000     0          
O4       O      0.542700000000     0.701000000000     0.597500000000     0          
O5       O      0.523600000000     0.611000000000     0.671000000000     0          
N1       N      0.360300000000     0.795000000000     0.758000000000     0          
H1       H      0.365000000000     0.844000000000     0.728000000000     0          
N2       N      0.270200000000     0.693000000000     0.658000000000     0          
H2       H      0.268400000000     0.734000000000     0.621300000000     0          
C1       C      0.365500000000     0.823000000000     0.828000000000     0          
H3       H      0.412200000000     0.860000000000     0.834000000000     0          
H4       H      0.373700000000     0.776000000000     0.859000000000     0          
C2       C      0.426600000000     0.740000000000     0.739500000000     0          
H5       H      0.426200000000     0.693000000000     0.769900000000     0          
H6       H      0.479000000000     0.768000000000     0.745000000000     0          
C3       C      0.418600000000     0.712000000000     0.666400000000     0          
H7       H      0.408500000000     0.761000000000     0.638000000000     0          
C4       C      0.349300000000     0.652000000000     0.654000000000     0          
H8       H      0.355700000000     0.628000000000     0.608000000000     0          
H9       H      0.351600000000     0.608000000000     0.688000000000     0          
C5       C      0.202300000000     0.637000000000     0.645000000000     0          
H10      H      0.208900000000     0.587000000000     0.672000000000     0          
H11      H      0.201100000000     0.622000000000     0.597000000000     0          
C6       C      0.497800000000     0.674000000000     0.643400000000     0          
Zr1      Zr     0.530800000000     0.645100000000     0.500000000000     0          
O2       O      0.662000000000     0.691000000000     0.500000000000     0          
O3       O      0.453000000000     0.746000000000     0.500000000000     0          
O1       O      0.559000000000     0.410000000000     0.435000000000     0          
O4       O      0.701000000000     0.457300000000     0.402500000000     0          
O5       O      0.611000000000     0.476400000000     0.329000000000     0          
N1       N      0.795000000000     0.639700000000     0.242000000000     0          
H1       H      0.844000000000     0.635000000000     0.272000000000     0          
N2       N      0.693000000000     0.729800000000     0.342000000000     0          
H2       H      0.734000000000     0.731600000000     0.378700000000     0          
C1       C      0.823000000000     0.634500000000     0.172000000000     0          
H3       H      0.860000000000     0.587800000000     0.166000000000     0          
H4       H      0.776000000000     0.626300000000     0.141000000000     0          
C2       C      0.740000000000     0.573400000000     0.260500000000     0          
H5       H      0.693000000000     0.573800000000     0.230100000000     0          
H6       H      0.768000000000     0.521000000000     0.255000000000     0          
C3       C      0.712000000000     0.581400000000     0.333600000000     0          
H7       H      0.761000000000     0.591500000000     0.362000000000     0          
C4       C      0.652000000000     0.650700000000     0.346000000000     0          
H8       H      0.628000000000     0.644300000000     0.392000000000     0          
H9       H      0.608000000000     0.648400000000     0.312000000000     0          
C5       C      0.637000000000     0.797700000000     0.355000000000     0          
H10      H      0.587000000000     0.791100000000     0.328000000000     0          
H11      H      0.622000000000     0.798900000000     0.403000000000     0          
C6       C      0.674000000000     0.502200000000     0.356600000000     0          
Zr2      Zr     0.500000000000     0.500000000000     0.376600000000     0          
O1       O      0.590000000000     0.559000000000     0.435000000000     0          
O4       O      0.542700000000     0.701000000000     0.402500000000     0          
O5       O      0.523600000000     0.611000000000     0.329000000000     0          
N1       N      0.360300000000     0.795000000000     0.242000000000     0          
H1       H      0.365000000000     0.844000000000     0.272000000000     0          
N2       N      0.270200000000     0.693000000000     0.342000000000     0          
H2       H      0.268400000000     0.734000000000     0.378700000000     0          
C1       C      0.365500000000     0.823000000000     0.172000000000     0          
H3       H      0.412200000000     0.860000000000     0.166000000000     0          
H4       H      0.373700000000     0.776000000000     0.141000000000     0          
C2       C      0.426600000000     0.740000000000     0.260500000000     0          
H5       H      0.426200000000     0.693000000000     0.230100000000     0          
H6       H      0.479000000000     0.768000000000     0.255000000000     0          
C3       C      0.418600000000     0.712000000000     0.333600000000     0          
H7       H      0.408500000000     0.761000000000     0.362000000000     0          
C4       C      0.349300000000     0.652000000000     0.346000000000     0          
H8       H      0.355700000000     0.628000000000     0.392000000000     0          
H9       H      0.351600000000     0.608000000000     0.312000000000     0          
C5       C      0.202300000000     0.637000000000     0.355000000000     0          
H10      H      0.208900000000     0.587000000000     0.328000000000     0          
H11      H      0.201100000000     0.622000000000     0.403000000000     0          
C6       C      0.497800000000     0.674000000000     0.356600000000     0          
O1       O      0.441000000000     0.590000000000     0.435000000000     0          
O4       O      0.299000000000     0.542700000000     0.402500000000     0          
O5       O      0.389000000000     0.523600000000     0.329000000000     0          
N1       N      0.205000000000     0.360300000000     0.242000000000     0          
H1       H      0.156000000000     0.365000000000     0.272000000000     0          
N2       N      0.307000000000     0.270200000000     0.342000000000     0          
H2       H      0.266000000000     0.268400000000     0.378700000000     0          
C1       C      0.177000000000     0.365500000000     0.172000000000     0          
H3       H      0.140000000000     0.412200000000     0.166000000000     0          
H4       H      0.224000000000     0.373700000000     0.141000000000     0          
C2       C      0.260000000000     0.426600000000     0.260500000000     0          
H5       H      0.307000000000     0.426200000000     0.230100000000     0          
H6       H      0.232000000000     0.479000000000     0.255000000000     0          
C3       C      0.288000000000     0.418600000000     0.333600000000     0          
H7       H      0.239000000000     0.408500000000     0.362000000000     0          
C4       C      0.348000000000     0.349300000000     0.346000000000     0          
H8       H      0.372000000000     0.355700000000     0.392000000000     0          
H9       H      0.392000000000     0.351600000000     0.312000000000     0          
C5       C      0.363000000000     0.202300000000     0.355000000000     0          
H10      H      0.413000000000     0.208900000000     0.328000000000     0          
H11      H      0.378000000000     0.201100000000     0.403000000000     0          
C6       C      0.326000000000     0.497800000000     0.356600000000     0          
O1       O      0.410000000000     0.441000000000     0.435000000000     0          
O4       O      0.457300000000     0.299000000000     0.402500000000     0          
O5       O      0.476400000000     0.389000000000     0.329000000000     0          
N1       N      0.639700000000     0.205000000000     0.242000000000     0          
H1       H      0.635000000000     0.156000000000     0.272000000000     0          
N2       N      0.729800000000     0.307000000000     0.342000000000     0          
H2       H      0.731600000000     0.266000000000     0.378700000000     0          
C1       C      0.634500000000     0.177000000000     0.172000000000     0          
H3       H      0.587800000000     0.140000000000     0.166000000000     0          
H4       H      0.626300000000     0.224000000000     0.141000000000     0          
C2       C      0.573400000000     0.260000000000     0.260500000000     0          
H5       H      0.573800000000     0.307000000000     0.230100000000     0          
H6       H      0.521000000000     0.232000000000     0.255000000000     0          
C3       C      0.581400000000     0.288000000000     0.333600000000     0          
H7       H      0.591500000000     0.239000000000     0.362000000000     0          
C4       C      0.650700000000     0.348000000000     0.346000000000     0          
H8       H      0.644300000000     0.372000000000     0.392000000000     0          
H9       H      0.648400000000     0.392000000000     0.312000000000     0          
C5       C      0.797700000000     0.363000000000     0.355000000000     0          
H10      H      0.791100000000     0.413000000000     0.328000000000     0          
H11      H      0.798900000000     0.378000000000     0.403000000000     0          
C6       C      0.502200000000     0.326000000000     0.356600000000     0          


