data_YESTAU

_audit_creation_method RASPA-1.0
_audit_creation_date 2020-4-3
_audit_author_name 'Rocio Bueno-Perez'

_cell_length_a    16.721
_cell_length_b    16.721
_cell_length_c    19.704
_cell_angle_alpha 90
_cell_angle_beta  90
_cell_angle_gamma 90
_cell_volume      5509.08

_symmetry_cell_setting          tetragonal
_symmetry_space_group_name_Hall 'P 1'
_symmetry_space_group_name_H-M  'P 1'
_symmetry_Int_Tables_number     1

_symmetry_equiv_pos_as_xyz 'x,y,z'

loop_
_atom_site_label
_atom_site_type_symbol
_atom_site_fract_x
_atom_site_fract_y
_atom_site_fract_z
_atom_site_charge
O1       O      0.936900000000     0.087000000000     0.066000000000     0          
O4       O      0.797000000000     0.032200000000     0.095400000000     0          
O5       O      0.889000000000     0.017700000000     0.166000000000     0          
N1       N      0.706000000000     0.864200000000     0.256000000000     0          
H1       H      0.659000000000     0.868300000000     0.226000000000     0          
N2       N      0.810000000000     0.771700000000     0.159400000000     0          
H2       H      0.770000000000     0.769200000000     0.121800000000     0          
C1       C      0.677000000000     0.871500000000     0.326000000000     0          
H3       H      0.641000000000     0.918000000000     0.330000000000     0          
H4       H      0.723000000000     0.880200000000     0.358000000000     0          
C2       C      0.761000000000     0.928700000000     0.237300000000     0          
H5       H      0.808000000000     0.928900000000     0.268700000000     0          
H6       H      0.734000000000     0.980900000000     0.242000000000     0          
C3       C      0.792000000000     0.918600000000     0.164500000000     0          
H7       H      0.744000000000     0.908100000000     0.135000000000     0          
C4       C      0.850000000000     0.849400000000     0.154300000000     0          
H8       H      0.876000000000     0.854200000000     0.109000000000     0          
H9       H      0.893000000000     0.852400000000     0.189000000000     0          
C5       C      0.864000000000     0.703900000000     0.149000000000     0          
H10      H      0.913000000000     0.710900000000     0.177000000000     0          
H11      H      0.880000000000     0.701300000000     0.100000000000     0          
C6       C      0.829000000000     0.995900000000     0.140400000000     0          
Zr1      Zr     0.858200000000     0.022450000000     0.000000000000     0          
O2       O      0.794000000000     0.144000000000     0.000000000000     0          
O3       O      0.758000000000     0.947000000000     0.000000000000     0          
Zr2      Zr     0.000000000000     0.000000000000     0.119300000000     0          
Cu1      Cu     0.750000000000     0.750000000000     0.250000000000     0          
O1       O      0.913000000000     0.936900000000     0.066000000000     0          
O4       O      0.967800000000     0.797000000000     0.095400000000     0          
O5       O      0.982300000000     0.889000000000     0.166000000000     0          
N1       N      0.135800000000     0.706000000000     0.256000000000     0          
H1       H      0.131700000000     0.659000000000     0.226000000000     0          
N2       N      0.228300000000     0.810000000000     0.159400000000     0          
H2       H      0.230800000000     0.770000000000     0.121800000000     0          
C1       C      0.128500000000     0.677000000000     0.326000000000     0          
H3       H      0.082000000000     0.641000000000     0.330000000000     0          
H4       H      0.119800000000     0.723000000000     0.358000000000     0          
C2       C      0.071300000000     0.761000000000     0.237300000000     0          
H5       H      0.071100000000     0.808000000000     0.268700000000     0          
H6       H      0.019100000000     0.734000000000     0.242000000000     0          
C3       C      0.081400000000     0.792000000000     0.164500000000     0          
H7       H      0.091900000000     0.744000000000     0.135000000000     0          
C4       C      0.150600000000     0.850000000000     0.154300000000     0          
H8       H      0.145800000000     0.876000000000     0.109000000000     0          
H9       H      0.147600000000     0.893000000000     0.189000000000     0          
C5       C      0.296100000000     0.864000000000     0.149000000000     0          
H10      H      0.289100000000     0.913000000000     0.177000000000     0          
H11      H      0.298700000000     0.880000000000     0.100000000000     0          
C6       C      0.004100000000     0.829000000000     0.140400000000     0          
Zr1      Zr     0.977550000000     0.858200000000     0.000000000000     0          
O2       O      0.856000000000     0.794000000000     0.000000000000     0          
O3       O      0.053000000000     0.758000000000     0.000000000000     0          
Cu1      Cu     0.250000000000     0.750000000000     0.250000000000     0          
O1       O      0.063100000000     0.913000000000     0.066000000000     0          
O4       O      0.203000000000     0.967800000000     0.095400000000     0          
O5       O      0.111000000000     0.982300000000     0.166000000000     0          
N1       N      0.294000000000     0.135800000000     0.256000000000     0          
H1       H      0.341000000000     0.131700000000     0.226000000000     0          
N2       N      0.190000000000     0.228300000000     0.159400000000     0          
H2       H      0.230000000000     0.230800000000     0.121800000000     0          
C1       C      0.323000000000     0.128500000000     0.326000000000     0          
H3       H      0.359000000000     0.082000000000     0.330000000000     0          
H4       H      0.277000000000     0.119800000000     0.358000000000     0          
C2       C      0.239000000000     0.071300000000     0.237300000000     0          
H5       H      0.192000000000     0.071100000000     0.268700000000     0          
H6       H      0.266000000000     0.019100000000     0.242000000000     0          
C3       C      0.208000000000     0.081400000000     0.164500000000     0          
H7       H      0.256000000000     0.091900000000     0.135000000000     0          
C4       C      0.150000000000     0.150600000000     0.154300000000     0          
H8       H      0.124000000000     0.145800000000     0.109000000000     0          
H9       H      0.107000000000     0.147600000000     0.189000000000     0          
C5       C      0.136000000000     0.296100000000     0.149000000000     0          
H10      H      0.087000000000     0.289100000000     0.177000000000     0          
H11      H      0.120000000000     0.298700000000     0.100000000000     0          
C6       C      0.171000000000     0.004100000000     0.140400000000     0          
Zr1      Zr     0.141800000000     0.977550000000     0.000000000000     0          
O2       O      0.206000000000     0.856000000000     0.000000000000     0          
O3       O      0.242000000000     0.053000000000     0.000000000000     0          
Cu1      Cu     0.250000000000     0.250000000000     0.250000000000     0          
O1       O      0.087000000000     0.063100000000     0.066000000000     0          
O4       O      0.032200000000     0.203000000000     0.095400000000     0          
O5       O      0.017700000000     0.111000000000     0.166000000000     0          
N1       N      0.864200000000     0.294000000000     0.256000000000     0          
H1       H      0.868300000000     0.341000000000     0.226000000000     0          
N2       N      0.771700000000     0.190000000000     0.159400000000     0          
H2       H      0.769200000000     0.230000000000     0.121800000000     0          
C1       C      0.871500000000     0.323000000000     0.326000000000     0          
H3       H      0.918000000000     0.359000000000     0.330000000000     0          
H4       H      0.880200000000     0.277000000000     0.358000000000     0          
C2       C      0.928700000000     0.239000000000     0.237300000000     0          
H5       H      0.928900000000     0.192000000000     0.268700000000     0          
H6       H      0.980900000000     0.266000000000     0.242000000000     0          
C3       C      0.918600000000     0.208000000000     0.164500000000     0          
H7       H      0.908100000000     0.256000000000     0.135000000000     0          
C4       C      0.849400000000     0.150000000000     0.154300000000     0          
H8       H      0.854200000000     0.124000000000     0.109000000000     0          
H9       H      0.852400000000     0.107000000000     0.189000000000     0          
C5       C      0.703900000000     0.136000000000     0.149000000000     0          
H10      H      0.710900000000     0.087000000000     0.177000000000     0          
H11      H      0.701300000000     0.120000000000     0.100000000000     0          
C6       C      0.995900000000     0.171000000000     0.140400000000     0          
Zr1      Zr     0.022450000000     0.141800000000     0.000000000000     0          
O2       O      0.144000000000     0.206000000000     0.000000000000     0          
O3       O      0.947000000000     0.242000000000     0.000000000000     0          
Cu1      Cu     0.750000000000     0.250000000000     0.250000000000     0          
O1       O      0.063100000000     0.913000000000     0.934000000000     0          
O4       O      0.203000000000     0.967800000000     0.904600000000     0          
O5       O      0.111000000000     0.982300000000     0.834000000000     0          
N1       N      0.294000000000     0.135800000000     0.744000000000     0          
H1       H      0.341000000000     0.131700000000     0.774000000000     0          
N2       N      0.190000000000     0.228300000000     0.840600000000     0          
H2       H      0.230000000000     0.230800000000     0.878200000000     0          
C1       C      0.323000000000     0.128500000000     0.674000000000     0          
H3       H      0.359000000000     0.082000000000     0.670000000000     0          
H4       H      0.277000000000     0.119800000000     0.642000000000     0          
C2       C      0.239000000000     0.071300000000     0.762700000000     0          
H5       H      0.192000000000     0.071100000000     0.731300000000     0          
H6       H      0.266000000000     0.019100000000     0.758000000000     0          
C3       C      0.208000000000     0.081400000000     0.835500000000     0          
H7       H      0.256000000000     0.091900000000     0.865000000000     0          
C4       C      0.150000000000     0.150600000000     0.845700000000     0          
H8       H      0.124000000000     0.145800000000     0.891000000000     0          
H9       H      0.107000000000     0.147600000000     0.811000000000     0          
C5       C      0.136000000000     0.296100000000     0.851000000000     0          
H10      H      0.087000000000     0.289100000000     0.823000000000     0          
H11      H      0.120000000000     0.298700000000     0.900000000000     0          
C6       C      0.171000000000     0.004100000000     0.859600000000     0          
Zr2      Zr     0.000000000000     0.000000000000     0.880700000000     0          
Cu1      Cu     0.250000000000     0.250000000000     0.750000000000     0          
O1       O      0.087000000000     0.063100000000     0.934000000000     0          
O4       O      0.032200000000     0.203000000000     0.904600000000     0          
O5       O      0.017700000000     0.111000000000     0.834000000000     0          
N1       N      0.864200000000     0.294000000000     0.744000000000     0          
H1       H      0.868300000000     0.341000000000     0.774000000000     0          
N2       N      0.771700000000     0.190000000000     0.840600000000     0          
H2       H      0.769200000000     0.230000000000     0.878200000000     0          
C1       C      0.871500000000     0.323000000000     0.674000000000     0          
H3       H      0.918000000000     0.359000000000     0.670000000000     0          
H4       H      0.880200000000     0.277000000000     0.642000000000     0          
C2       C      0.928700000000     0.239000000000     0.762700000000     0          
H5       H      0.928900000000     0.192000000000     0.731300000000     0          
H6       H      0.980900000000     0.266000000000     0.758000000000     0          
C3       C      0.918600000000     0.208000000000     0.835500000000     0          
H7       H      0.908100000000     0.256000000000     0.865000000000     0          
C4       C      0.849400000000     0.150000000000     0.845700000000     0          
H8       H      0.854200000000     0.124000000000     0.891000000000     0          
H9       H      0.852400000000     0.107000000000     0.811000000000     0          
C5       C      0.703900000000     0.136000000000     0.851000000000     0          
H10      H      0.710900000000     0.087000000000     0.823000000000     0          
H11      H      0.701300000000     0.120000000000     0.900000000000     0          
C6       C      0.995900000000     0.171000000000     0.859600000000     0          
Cu1      Cu     0.750000000000     0.250000000000     0.750000000000     0          
O1       O      0.936900000000     0.087000000000     0.934000000000     0          
O4       O      0.797000000000     0.032200000000     0.904600000000     0          
O5       O      0.889000000000     0.017700000000     0.834000000000     0          
N1       N      0.706000000000     0.864200000000     0.744000000000     0          
H1       H      0.659000000000     0.868300000000     0.774000000000     0          
N2       N      0.810000000000     0.771700000000     0.840600000000     0          
H2       H      0.770000000000     0.769200000000     0.878200000000     0          
C1       C      0.677000000000     0.871500000000     0.674000000000     0          
H3       H      0.641000000000     0.918000000000     0.670000000000     0          
H4       H      0.723000000000     0.880200000000     0.642000000000     0          
C2       C      0.761000000000     0.928700000000     0.762700000000     0          
H5       H      0.808000000000     0.928900000000     0.731300000000     0          
H6       H      0.734000000000     0.980900000000     0.758000000000     0          
C3       C      0.792000000000     0.918600000000     0.835500000000     0          
H7       H      0.744000000000     0.908100000000     0.865000000000     0          
C4       C      0.850000000000     0.849400000000     0.845700000000     0          
H8       H      0.876000000000     0.854200000000     0.891000000000     0          
H9       H      0.893000000000     0.852400000000     0.811000000000     0          
C5       C      0.864000000000     0.703900000000     0.851000000000     0          
H10      H      0.913000000000     0.710900000000     0.823000000000     0          
H11      H      0.880000000000     0.701300000000     0.900000000000     0          
C6       C      0.829000000000     0.995900000000     0.859600000000     0          
Cu1      Cu     0.750000000000     0.750000000000     0.750000000000     0          
O1       O      0.913000000000     0.936900000000     0.934000000000     0          
O4       O      0.967800000000     0.797000000000     0.904600000000     0          
O5       O      0.982300000000     0.889000000000     0.834000000000     0          
N1       N      0.135800000000     0.706000000000     0.744000000000     0          
H1       H      0.131700000000     0.659000000000     0.774000000000     0          
N2       N      0.228300000000     0.810000000000     0.840600000000     0          
H2       H      0.230800000000     0.770000000000     0.878200000000     0          
C1       C      0.128500000000     0.677000000000     0.674000000000     0          
H3       H      0.082000000000     0.641000000000     0.670000000000     0          
H4       H      0.119800000000     0.723000000000     0.642000000000     0          
C2       C      0.071300000000     0.761000000000     0.762700000000     0          
H5       H      0.071100000000     0.808000000000     0.731300000000     0          
H6       H      0.019100000000     0.734000000000     0.758000000000     0          
C3       C      0.081400000000     0.792000000000     0.835500000000     0          
H7       H      0.091900000000     0.744000000000     0.865000000000     0          
C4       C      0.150600000000     0.850000000000     0.845700000000     0          
H8       H      0.145800000000     0.876000000000     0.891000000000     0          
H9       H      0.147600000000     0.893000000000     0.811000000000     0          
C5       C      0.296100000000     0.864000000000     0.851000000000     0          
H10      H      0.289100000000     0.913000000000     0.823000000000     0          
H11      H      0.298700000000     0.880000000000     0.900000000000     0          
C6       C      0.004100000000     0.829000000000     0.859600000000     0          
Cu1      Cu     0.250000000000     0.750000000000     0.750000000000     0          
O1       O      0.436900000000     0.587000000000     0.566000000000     0          
O4       O      0.297000000000     0.532200000000     0.595400000000     0          
O5       O      0.389000000000     0.517700000000     0.666000000000     0          
N1       N      0.206000000000     0.364200000000     0.756000000000     0          
H1       H      0.159000000000     0.368300000000     0.726000000000     0          
N2       N      0.310000000000     0.271700000000     0.659400000000     0          
H2       H      0.270000000000     0.269200000000     0.621800000000     0          
C1       C      0.177000000000     0.371500000000     0.826000000000     0          
H3       H      0.141000000000     0.418000000000     0.830000000000     0          
H4       H      0.223000000000     0.380200000000     0.858000000000     0          
C2       C      0.261000000000     0.428700000000     0.737300000000     0          
H5       H      0.308000000000     0.428900000000     0.768700000000     0          
H6       H      0.234000000000     0.480900000000     0.742000000000     0          
C3       C      0.292000000000     0.418600000000     0.664500000000     0          
H7       H      0.244000000000     0.408100000000     0.635000000000     0          
C4       C      0.350000000000     0.349400000000     0.654300000000     0          
H8       H      0.376000000000     0.354200000000     0.609000000000     0          
H9       H      0.393000000000     0.352400000000     0.689000000000     0          
C5       C      0.364000000000     0.203900000000     0.649000000000     0          
H10      H      0.413000000000     0.210900000000     0.677000000000     0          
H11      H      0.380000000000     0.201300000000     0.600000000000     0          
C6       C      0.329000000000     0.495900000000     0.640400000000     0          
Zr1      Zr     0.358200000000     0.522450000000     0.500000000000     0          
O2       O      0.294000000000     0.644000000000     0.500000000000     0          
O3       O      0.258000000000     0.447000000000     0.500000000000     0          
Zr2      Zr     0.500000000000     0.500000000000     0.619300000000     0          
O1       O      0.413000000000     0.436900000000     0.566000000000     0          
O4       O      0.467800000000     0.297000000000     0.595400000000     0          
O5       O      0.482300000000     0.389000000000     0.666000000000     0          
N1       N      0.635800000000     0.206000000000     0.756000000000     0          
H1       H      0.631700000000     0.159000000000     0.726000000000     0          
N2       N      0.728300000000     0.310000000000     0.659400000000     0          
H2       H      0.730800000000     0.270000000000     0.621800000000     0          
C1       C      0.628500000000     0.177000000000     0.826000000000     0          
H3       H      0.582000000000     0.141000000000     0.830000000000     0          
H4       H      0.619800000000     0.223000000000     0.858000000000     0          
C2       C      0.571300000000     0.261000000000     0.737300000000     0          
H5       H      0.571100000000     0.308000000000     0.768700000000     0          
H6       H      0.519100000000     0.234000000000     0.742000000000     0          
C3       C      0.581400000000     0.292000000000     0.664500000000     0          
H7       H      0.591900000000     0.244000000000     0.635000000000     0          
C4       C      0.650600000000     0.350000000000     0.654300000000     0          
H8       H      0.645800000000     0.376000000000     0.609000000000     0          
H9       H      0.647600000000     0.393000000000     0.689000000000     0          
C5       C      0.796100000000     0.364000000000     0.649000000000     0          
H10      H      0.789100000000     0.413000000000     0.677000000000     0          
H11      H      0.798700000000     0.380000000000     0.600000000000     0          
C6       C      0.504100000000     0.329000000000     0.640400000000     0          
Zr1      Zr     0.477550000000     0.358200000000     0.500000000000     0          
O2       O      0.356000000000     0.294000000000     0.500000000000     0          
O3       O      0.553000000000     0.258000000000     0.500000000000     0          
O1       O      0.563100000000     0.413000000000     0.566000000000     0          
O4       O      0.703000000000     0.467800000000     0.595400000000     0          
O5       O      0.611000000000     0.482300000000     0.666000000000     0          
N1       N      0.794000000000     0.635800000000     0.756000000000     0          
H1       H      0.841000000000     0.631700000000     0.726000000000     0          
N2       N      0.690000000000     0.728300000000     0.659400000000     0          
H2       H      0.730000000000     0.730800000000     0.621800000000     0          
C1       C      0.823000000000     0.628500000000     0.826000000000     0          
H3       H      0.859000000000     0.582000000000     0.830000000000     0          
H4       H      0.777000000000     0.619800000000     0.858000000000     0          
C2       C      0.739000000000     0.571300000000     0.737300000000     0          
H5       H      0.692000000000     0.571100000000     0.768700000000     0          
H6       H      0.766000000000     0.519100000000     0.742000000000     0          
C3       C      0.708000000000     0.581400000000     0.664500000000     0          
H7       H      0.756000000000     0.591900000000     0.635000000000     0          
C4       C      0.650000000000     0.650600000000     0.654300000000     0          
H8       H      0.624000000000     0.645800000000     0.609000000000     0          
H9       H      0.607000000000     0.647600000000     0.689000000000     0          
C5       C      0.636000000000     0.796100000000     0.649000000000     0          
H10      H      0.587000000000     0.789100000000     0.677000000000     0          
H11      H      0.620000000000     0.798700000000     0.600000000000     0          
C6       C      0.671000000000     0.504100000000     0.640400000000     0          
Zr1      Zr     0.641800000000     0.477550000000     0.500000000000     0          
O2       O      0.706000000000     0.356000000000     0.500000000000     0          
O3       O      0.742000000000     0.553000000000     0.500000000000     0          
O1       O      0.587000000000     0.563100000000     0.566000000000     0          
O4       O      0.532200000000     0.703000000000     0.595400000000     0          
O5       O      0.517700000000     0.611000000000     0.666000000000     0          
N1       N      0.364200000000     0.794000000000     0.756000000000     0          
H1       H      0.368300000000     0.841000000000     0.726000000000     0          
N2       N      0.271700000000     0.690000000000     0.659400000000     0          
H2       H      0.269200000000     0.730000000000     0.621800000000     0          
C1       C      0.371500000000     0.823000000000     0.826000000000     0          
H3       H      0.418000000000     0.859000000000     0.830000000000     0          
H4       H      0.380200000000     0.777000000000     0.858000000000     0          
C2       C      0.428700000000     0.739000000000     0.737300000000     0          
H5       H      0.428900000000     0.692000000000     0.768700000000     0          
H6       H      0.480900000000     0.766000000000     0.742000000000     0          
C3       C      0.418600000000     0.708000000000     0.664500000000     0          
H7       H      0.408100000000     0.756000000000     0.635000000000     0          
C4       C      0.349400000000     0.650000000000     0.654300000000     0          
H8       H      0.354200000000     0.624000000000     0.609000000000     0          
H9       H      0.352400000000     0.607000000000     0.689000000000     0          
C5       C      0.203900000000     0.636000000000     0.649000000000     0          
H10      H      0.210900000000     0.587000000000     0.677000000000     0          
H11      H      0.201300000000     0.620000000000     0.600000000000     0          
C6       C      0.495900000000     0.671000000000     0.640400000000     0          
Zr1      Zr     0.522450000000     0.641800000000     0.500000000000     0          
O2       O      0.644000000000     0.706000000000     0.500000000000     0          
O3       O      0.447000000000     0.742000000000     0.500000000000     0          
O1       O      0.563100000000     0.413000000000     0.434000000000     0          
O4       O      0.703000000000     0.467800000000     0.404600000000     0          
O5       O      0.611000000000     0.482300000000     0.334000000000     0          
N1       N      0.794000000000     0.635800000000     0.244000000000     0          
H1       H      0.841000000000     0.631700000000     0.274000000000     0          
N2       N      0.690000000000     0.728300000000     0.340600000000     0          
H2       H      0.730000000000     0.730800000000     0.378200000000     0          
C1       C      0.823000000000     0.628500000000     0.174000000000     0          
H3       H      0.859000000000     0.582000000000     0.170000000000     0          
H4       H      0.777000000000     0.619800000000     0.142000000000     0          
C2       C      0.739000000000     0.571300000000     0.262700000000     0          
H5       H      0.692000000000     0.571100000000     0.231300000000     0          
H6       H      0.766000000000     0.519100000000     0.258000000000     0          
C3       C      0.708000000000     0.581400000000     0.335500000000     0          
H7       H      0.756000000000     0.591900000000     0.365000000000     0          
C4       C      0.650000000000     0.650600000000     0.345700000000     0          
H8       H      0.624000000000     0.645800000000     0.391000000000     0          
H9       H      0.607000000000     0.647600000000     0.311000000000     0          
C5       C      0.636000000000     0.796100000000     0.351000000000     0          
H10      H      0.587000000000     0.789100000000     0.323000000000     0          
H11      H      0.620000000000     0.798700000000     0.400000000000     0          
C6       C      0.671000000000     0.504100000000     0.359600000000     0          
Zr2      Zr     0.500000000000     0.500000000000     0.380700000000     0          
O1       O      0.587000000000     0.563100000000     0.434000000000     0          
O4       O      0.532200000000     0.703000000000     0.404600000000     0          
O5       O      0.517700000000     0.611000000000     0.334000000000     0          
N1       N      0.364200000000     0.794000000000     0.244000000000     0          
H1       H      0.368300000000     0.841000000000     0.274000000000     0          
N2       N      0.271700000000     0.690000000000     0.340600000000     0          
H2       H      0.269200000000     0.730000000000     0.378200000000     0          
C1       C      0.371500000000     0.823000000000     0.174000000000     0          
H3       H      0.418000000000     0.859000000000     0.170000000000     0          
H4       H      0.380200000000     0.777000000000     0.142000000000     0          
C2       C      0.428700000000     0.739000000000     0.262700000000     0          
H5       H      0.428900000000     0.692000000000     0.231300000000     0          
H6       H      0.480900000000     0.766000000000     0.258000000000     0          
C3       C      0.418600000000     0.708000000000     0.335500000000     0          
H7       H      0.408100000000     0.756000000000     0.365000000000     0          
C4       C      0.349400000000     0.650000000000     0.345700000000     0          
H8       H      0.354200000000     0.624000000000     0.391000000000     0          
H9       H      0.352400000000     0.607000000000     0.311000000000     0          
C5       C      0.203900000000     0.636000000000     0.351000000000     0          
H10      H      0.210900000000     0.587000000000     0.323000000000     0          
H11      H      0.201300000000     0.620000000000     0.400000000000     0          
C6       C      0.495900000000     0.671000000000     0.359600000000     0          
O1       O      0.436900000000     0.587000000000     0.434000000000     0          
O4       O      0.297000000000     0.532200000000     0.404600000000     0          
O5       O      0.389000000000     0.517700000000     0.334000000000     0          
N1       N      0.206000000000     0.364200000000     0.244000000000     0          
H1       H      0.159000000000     0.368300000000     0.274000000000     0          
N2       N      0.310000000000     0.271700000000     0.340600000000     0          
H2       H      0.270000000000     0.269200000000     0.378200000000     0          
C1       C      0.177000000000     0.371500000000     0.174000000000     0          
H3       H      0.141000000000     0.418000000000     0.170000000000     0          
H4       H      0.223000000000     0.380200000000     0.142000000000     0          
C2       C      0.261000000000     0.428700000000     0.262700000000     0          
H5       H      0.308000000000     0.428900000000     0.231300000000     0          
H6       H      0.234000000000     0.480900000000     0.258000000000     0          
C3       C      0.292000000000     0.418600000000     0.335500000000     0          
H7       H      0.244000000000     0.408100000000     0.365000000000     0          
C4       C      0.350000000000     0.349400000000     0.345700000000     0          
H8       H      0.376000000000     0.354200000000     0.391000000000     0          
H9       H      0.393000000000     0.352400000000     0.311000000000     0          
C5       C      0.364000000000     0.203900000000     0.351000000000     0          
H10      H      0.413000000000     0.210900000000     0.323000000000     0          
H11      H      0.380000000000     0.201300000000     0.400000000000     0          
C6       C      0.329000000000     0.495900000000     0.359600000000     0          
O1       O      0.413000000000     0.436900000000     0.434000000000     0          
O4       O      0.467800000000     0.297000000000     0.404600000000     0          
O5       O      0.482300000000     0.389000000000     0.334000000000     0          
N1       N      0.635800000000     0.206000000000     0.244000000000     0          
H1       H      0.631700000000     0.159000000000     0.274000000000     0          
N2       N      0.728300000000     0.310000000000     0.340600000000     0          
H2       H      0.730800000000     0.270000000000     0.378200000000     0          
C1       C      0.628500000000     0.177000000000     0.174000000000     0          
H3       H      0.582000000000     0.141000000000     0.170000000000     0          
H4       H      0.619800000000     0.223000000000     0.142000000000     0          
C2       C      0.571300000000     0.261000000000     0.262700000000     0          
H5       H      0.571100000000     0.308000000000     0.231300000000     0          
H6       H      0.519100000000     0.234000000000     0.258000000000     0          
C3       C      0.581400000000     0.292000000000     0.335500000000     0          
H7       H      0.591900000000     0.244000000000     0.365000000000     0          
C4       C      0.650600000000     0.350000000000     0.345700000000     0          
H8       H      0.645800000000     0.376000000000     0.391000000000     0          
H9       H      0.647600000000     0.393000000000     0.311000000000     0          
C5       C      0.796100000000     0.364000000000     0.351000000000     0          
H10      H      0.789100000000     0.413000000000     0.323000000000     0          
H11      H      0.798700000000     0.380000000000     0.400000000000     0          
C6       C      0.504100000000     0.329000000000     0.359600000000     0          


