data_YETDUZ

_audit_creation_method RASPA-1.0
_audit_creation_date 2020-1-15
_audit_author_name 'Rocio Bueno-Perez'

_cell_length_a    8.28
_cell_length_b    13.9085
_cell_length_c    15.2215
_cell_angle_alpha 78.687
_cell_angle_beta  83.336
_cell_angle_gamma 88.497
_cell_volume      1707.26

_symmetry_cell_setting          triclinic
_symmetry_space_group_name_Hall 'P 1'
_symmetry_space_group_name_H-M  'P 1'
_symmetry_Int_Tables_number     1

_symmetry_equiv_pos_as_xyz 'x,y,z'

loop_
_atom_site_label
_atom_site_type_symbol
_atom_site_fract_x
_atom_site_fract_y
_atom_site_fract_z
_atom_site_charge
Zr1      Zr     0.871180000000     0.615390000000     0.118890000000     0          
P1       P      0.903460000000     0.372050000000     0.096160000000     0          
P2       P      0.666030000000     0.561990000000     0.340240000000     0          
P3       P      0.101150000000     0.125820000000     0.921050000000     0          
O1       O      0.734800000000     0.348550000000     0.079670000000     0          
O2       O      0.029000000000     0.374380000000     0.014370000000     0          
O3       O      0.905800000000     0.466470000000     0.133650000000     0          
O4       O      0.762200000000     0.510140000000     0.412860000000     0          
O5       O      0.526300000000     0.503430000000     0.321300000000     0          
O6       O      0.775300000000     0.601450000000     0.251370000000     0          
O7       O      0.213700000000     0.057910000000     0.982990000000     0          
H1       H      0.165900000000     0.004800000000     0.005700000000     0          
O8       O      0.925100000000     0.111020000000     0.958790000000     0          
O9       O      0.163400000000     0.229210000000     0.909580000000     0          
F1       F      0.089110000000     0.639950000000     0.152510000000     0          
F2       F      0.651610000000     0.606360000000     0.080530000000     0          
N1       N      0.154100000000     0.090510000000     0.478260000000     0          
C1       C      0.169100000000     0.070640000000     0.393610000000     0          
C2       C      0.246000000000     0.987170000000     0.375740000000     0          
H2       H      0.252800000000     0.973000000000     0.316800000000     0          
C3       C      0.313500000000     0.923780000000     0.442970000000     0          
C4       C      0.297000000000     0.943190000000     0.529390000000     0          
C5       C      0.214200000000     0.025700000000     0.546620000000     0          
C6       C      0.099700000000     0.141040000000     0.320910000000     0          
C7       C      0.994900000000     0.216210000000     0.341360000000     0          
C8       C      0.934400000000     0.284350000000     0.274500000000     0          
C9       C      0.975200000000     0.279470000000     0.183530000000     0          
C10      C      0.077100000000     0.203340000000     0.162790000000     0          
C11      C      0.137500000000     0.135760000000     0.230060000000     0          
C12      C      0.403300000000     0.835890000000     0.421430000000     0          
C13      C      0.470600000000     0.835540000000     0.333000000000     0          
C14      C      0.554800000000     0.755430000000     0.310370000000     0          
C15      C      0.572700000000     0.670630000000     0.374470000000     0          
C16      C      0.506700000000     0.670190000000     0.463390000000     0          
C17      C      0.423400000000     0.751530000000     0.486340000000     0          
C18      C      0.185500000000     0.046690000000     0.639110000000     0          
C19      C      0.241300000000     0.985420000000     0.712430000000     0          
C20      C      0.215300000000     0.007240000000     0.798000000000     0          
C21      C      0.131900000000     0.091650000000     0.812620000000     0          
C22      C      0.072500000000     0.152200000000     0.739800000000     0          
C23      C      0.098200000000     0.130200000000     0.654400000000     0          
H3       H      0.346000000000     0.905000000000     0.574300000000     0          
H4       H      0.964000000000     0.220000000000     0.401900000000     0          
H5       H      0.863000000000     0.334600000000     0.290000000000     0          
H6       H      0.099000000000     0.198000000000     0.101700000000     0          
H7       H      0.204000000000     0.084100000000     0.214000000000     0          
H8       H      0.465000000000     0.892000000000     0.288600000000     0          
H9       H      0.607000000000     0.758000000000     0.252200000000     0          
H10      H      0.512000000000     0.613600000000     0.507900000000     0          
H11      H      0.381000000000     0.749000000000     0.545500000000     0          
H12      H      0.292000000000     0.924700000000     0.706000000000     0          
H13      H      0.255000000000     0.968000000000     0.848800000000     0          
H14      H      0.012000000000     0.208800000000     0.749000000000     0          
H15      H      0.056000000000     0.166000000000     0.604400000000     0          
Zr1A     Zr     0.128820000000     0.384610000000     0.881110000000     0          
O2A      O      0.971000000000     0.625620000000     0.985630000000     0          
O9A      O      0.836600000000     0.770790000000     0.090420000000     0          
P1       P      0.096540000000     0.627950000000     0.903840000000     0          
P2       P      0.333970000000     0.438010000000     0.659760000000     0          
P3       P      0.898850000000     0.874180000000     0.078950000000     0          
O1       O      0.265200000000     0.651450000000     0.920330000000     0          
O3       O      0.094200000000     0.533530000000     0.866350000000     0          
O4       O      0.237800000000     0.489860000000     0.587140000000     0          
O5       O      0.473700000000     0.496570000000     0.678700000000     0          
O6       O      0.224700000000     0.398550000000     0.748630000000     0          
O7       O      0.786300000000     0.942090000000     0.017010000000     0          
H1       H      0.834100000000     0.995200000000     0.994300000000     0          
O8       O      0.074900000000     0.888980000000     0.041210000000     0          
F1       F      0.910890000000     0.360050000000     0.847490000000     0          
F2       F      0.348390000000     0.393640000000     0.919470000000     0          
N1       N      0.845900000000     0.909490000000     0.521740000000     0          
C1       C      0.830900000000     0.929360000000     0.606390000000     0          
C2       C      0.754000000000     0.012830000000     0.624260000000     0          
H2       H      0.747200000000     0.027000000000     0.683200000000     0          
C3       C      0.686500000000     0.076220000000     0.557030000000     0          
C4       C      0.703000000000     0.056810000000     0.470610000000     0          
C5       C      0.785800000000     0.974300000000     0.453380000000     0          
C6       C      0.900300000000     0.858960000000     0.679090000000     0          
C7       C      0.005100000000     0.783790000000     0.658640000000     0          
C8       C      0.065600000000     0.715650000000     0.725500000000     0          
C9       C      0.024800000000     0.720530000000     0.816470000000     0          
C10      C      0.922900000000     0.796660000000     0.837210000000     0          
C11      C      0.862500000000     0.864240000000     0.769940000000     0          
C12      C      0.596700000000     0.164110000000     0.578570000000     0          
C13      C      0.529400000000     0.164460000000     0.667000000000     0          
C14      C      0.445200000000     0.244570000000     0.689630000000     0          
C15      C      0.427300000000     0.329370000000     0.625530000000     0          
C16      C      0.493300000000     0.329810000000     0.536610000000     0          
C17      C      0.576600000000     0.248470000000     0.513660000000     0          
C18      C      0.814500000000     0.953310000000     0.360890000000     0          
C19      C      0.758700000000     0.014580000000     0.287570000000     0          
C20      C      0.784700000000     0.992760000000     0.202000000000     0          
C21      C      0.868100000000     0.908350000000     0.187380000000     0          
C22      C      0.927500000000     0.847800000000     0.260200000000     0          
C23      C      0.901800000000     0.869800000000     0.345600000000     0          
H3       H      0.654000000000     0.095000000000     0.425700000000     0          
H4       H      0.036000000000     0.780000000000     0.598100000000     0          
H5       H      0.137000000000     0.665400000000     0.710000000000     0          
H6       H      0.901000000000     0.802000000000     0.898300000000     0          
H7       H      0.796000000000     0.915900000000     0.786000000000     0          
H8       H      0.535000000000     0.108000000000     0.711400000000     0          
H9       H      0.393000000000     0.242000000000     0.747800000000     0          
H10      H      0.488000000000     0.386400000000     0.492100000000     0          
H11      H      0.619000000000     0.251000000000     0.454500000000     0          
H12      H      0.708000000000     0.075300000000     0.294000000000     0          
H13      H      0.745000000000     0.032000000000     0.151200000000     0          
H14      H      0.988000000000     0.791200000000     0.251000000000     0          
H15      H      0.944000000000     0.834000000000     0.395600000000     0          


