data_YUJWAD

_audit_creation_method RASPA-1.0
_audit_creation_date 2020-1-15
_audit_author_name 'Rocio Bueno-Perez'

_cell_length_a    8.4752
_cell_length_b    8.4797
_cell_length_c    16.1725
_cell_angle_alpha 78.177
_cell_angle_beta  89.232
_cell_angle_gamma 69.334
_cell_volume      1062.21

_symmetry_cell_setting          triclinic
_symmetry_space_group_name_Hall 'P 1'
_symmetry_space_group_name_H-M  'P 1'
_symmetry_Int_Tables_number     1

_symmetry_equiv_pos_as_xyz 'x,y,z'

loop_
_atom_site_label
_atom_site_type_symbol
_atom_site_fract_x
_atom_site_fract_y
_atom_site_fract_z
_atom_site_charge
Li1      Li     0.242000000000     0.757000000000     0.091200000000     0          
Li2      Li     0.204000000000     0.099000000000     0.565300000000     0          
Li3      Li     0.187000000000     0.774000000000     0.572300000000     0          
Li4      Li     0.240000000000     0.420000000000     0.626000000000     0          
C1       C      0.990300000000     0.733900000000     0.698800000000     0          
C2       C      0.999400000000     0.916800000000     0.962400000000     0          
C3       C      0.458500000000     0.089700000000     0.709100000000     0          
C4       C      0.977600000000     0.930100000000     0.688500000000     0          
C5       C      0.049800000000     0.723000000000     0.968200000000     0          
C6       C      0.608800000000     0.611000000000     0.925000000000     0          
C7       C      0.480400000000     0.215400000000     0.759200000000     0          
C8       C      0.552700000000     0.756000000000     0.974700000000     0          
C9       C      0.393900000000     0.808500000000     0.224600000000     0          
C10      C      0.452000000000     0.607000000000     0.235000000000     0          
C11      C      0.989700000000     0.441600000000     0.484900000000     0          
C12      C      0.968400000000     0.308500000000     0.435500000000     0          
C13      C      0.843000000000     0.916000000000     0.269700000000     0          
C14      C      0.886000000000     0.770000000000     0.218800000000     0          
C15      C      0.464900000000     0.605100000000     0.507900000000     0          
C16      C      0.461300000000     0.787200000000     0.498900000000     0          
O1       O      0.348700000000     0.144200000000     0.652800000000     0          
O2       O      0.105300000000     0.380300000000     0.543200000000     0          
O3       O      0.285500000000     0.901900000000     0.173100000000     0          
O4       O      0.162400000000     0.620900000000     0.024400000000     0          
O5       O      0.064400000000     0.980300000000     0.634400000000     0          
O6       O      0.086200000000     0.820400000000     0.459900000000     0          
H1       H      0.004900000000     0.764200000000     0.451500000000     0          
H2       H      0.163700000000     0.787700000000     0.414600000000     0          
O7       O      0.480000000000     0.848600000000     0.279500000000     0          
O8       O      0.602400000000     0.885400000000     0.940100000000     0          
O9       O      0.558500000000     0.933800000000     0.734100000000     0          
O10      O      0.887400000000     0.592600000000     0.460100000000     0          
O11      O      0.966500000000     0.679200000000     0.919200000000     0          
O12      O      0.848800000000     0.375900000000     0.377800000000     0          
O13      O      0.889600000000     0.004900000000     0.738800000000     0          
O14      O      0.388900000000     0.368900000000     0.740800000000     0          
O15      O      0.068900000000     0.159600000000     0.453200000000     0          
O16      O      0.575800000000     0.522200000000     0.288200000000     0          
O17      O      0.895900000000     0.697500000000     0.751800000000     0          
O18      O      0.076400000000     0.646800000000     0.653600000000     0          
O19      O      0.369500000000     0.549000000000     0.192600000000     0          
O20      O      0.600200000000     0.149900000000     0.817000000000     0          
O21      O      0.872300000000     0.005800000000     0.905700000000     0          
O22      O      0.070600000000     0.972300000000     0.003300000000     0          
O23      O      0.495800000000     0.738500000000     0.043500000000     0          
O24      O      0.579500000000     0.477000000000     0.950100000000     0          
O25      O      0.685500000000     0.646300000000     0.855500000000     0          
O26      O      0.366400000000     0.883200000000     0.542800000000     0          
O27      O      0.388900000000     0.543800000000     0.562200000000     0          
O28      O      0.566400000000     0.521600000000     0.456100000000     0          
O29      O      0.552800000000     0.834900000000     0.441700000000     0          
O30      O      0.771100000000     0.878400000000     0.334400000000     0          
O31      O      0.837900000000     0.647500000000     0.252200000000     0          
O32      O      0.873000000000     0.044800000000     0.246700000000     0          
O33      O      0.984800000000     0.765100000000     0.163200000000     0          
Zr1      Zr     0.685920000000     0.655580000000     0.359810000000     0          
Zr2      Zr     0.762870000000     0.870210000000     0.835570000000     0          


