data_YUJWAD01

_audit_creation_method RASPA-1.0
_audit_creation_date 2020-1-15
_audit_author_name 'Rocio Bueno-Perez'

_cell_length_a    8.5302
_cell_length_b    8.5902
_cell_length_c    16.1582
_cell_angle_alpha 89.309
_cell_angle_beta  78.004
_cell_angle_gamma 68.812
_cell_volume      1077.28

_symmetry_cell_setting          triclinic
_symmetry_space_group_name_Hall 'P 1'
_symmetry_space_group_name_H-M  'P 1'
_symmetry_Int_Tables_number     1

_symmetry_equiv_pos_as_xyz 'x,y,z'

loop_
_atom_site_label
_atom_site_type_symbol
_atom_site_fract_x
_atom_site_fract_y
_atom_site_fract_z
_atom_site_charge
Zr1      Zr     0.596930000000     0.737800000000     0.585950000000     0          
O1       O      0.405400000000     0.940000000000     0.670200000000     0          
O2       O      0.660400000000     0.537300000000     0.484100000000     0          
O3       O      0.874600000000     0.575800000000     0.565900000000     0          
O4       O      0.606200000000     0.577200000000     0.690600000000     0          
O5       O      0.729500000000     0.842200000000     0.660400000000     0          
O6       O      0.420500000000     0.875100000000     0.504200000000     0          
O7       O      0.726000000000     0.862500000000     0.490000000000     0          
O8       O      0.373500000000     0.658200000000     0.610000000000     0          
C1       C      0.446000000000     0.017100000000     0.718700000000     0          
C2       C      0.816000000000     0.437500000000     0.460400000000     0          
C3       C      0.941600000000     0.453500000000     0.508900000000     0          
C4       C      0.491000000000     0.520000000000     0.720500000000     0          
C5       C      0.653100000000     0.952000000000     0.708400000000     0          
C6       C      0.462000000000     0.967600000000     0.450100000000     0          
C7       C      0.645200000000     0.962900000000     0.441000000000     0          
C8       C      0.338300000000     0.575900000000     0.674300000000     0          
O9       O      0.349700000000     0.134100000000     0.773600000000     0          
O10      O      0.868300000000     0.320500000000     0.402100000000     0          
O11      O      0.090200000000     0.354400000000     0.490300000000     0          
O12      O      0.494600000000     0.435400000000     0.778500000000     0          
O13      O      0.698800000000     0.038900000000     0.755100000000     0          
O14      O      0.371900000000     0.059000000000     0.404700000000     0          
O15      O      0.704400000000     0.042000000000     0.388500000000     0          
O16      O      0.216600000000     0.547200000000     0.695900000000     0          
Li1      Li     0.477000000000     0.205000000000     0.850000000000     0          
Li2      Li     0.825000000000     0.185000000000     0.322000000000     0          
Li3      Li     0.148000000000     0.218000000000     0.378700000000     0          
Li4      Li     0.469200000000     0.242000000000     0.377800000000     0          
O17      O      0.623400000000     0.262900000000     0.921800000000     0          
O18      O      0.270600000000     0.357700000000     0.939600000000     0          
O19      O      0.502900000000     0.928000000000     0.908600000000     0          
O20      O      0.602300000000     0.341700000000     0.292300000000     0          
O21      O      0.270300000000     0.355300000000     0.309800000000     0          
O22      O      0.108700000000     0.068000000000     0.295300000000     0          
O23      O      0.885100000000     0.035700000000     0.207000000000     0          
C9       C      0.511500000000     0.431600000000     0.249000000000     0          
C10      C      0.165800000000     0.961000000000     0.239000000000     0          
O24      O      0.426600000000     0.346800000000     0.488600000000     0          
C11      C      0.321500000000     0.439200000000     0.256300000000     0          
O25      O      0.552700000000     0.523700000000     0.194500000000     0          
C12      C      0.034300000000     0.940000000000     0.189300000000     0          
O26      O      0.317500000000     0.853800000000     0.214100000000     0          
H1       H      0.443900000000     0.272800000000     0.528800000000     0          
H2       H      0.318000000000     0.420100000000     0.505800000000     0          
O27      O      0.242200000000     0.531400000000     0.205800000000     0          
Zr2      Zr     0.377810000000     0.657600000000     0.111650000000     0          
O28      O      0.097000000000     0.819100000000     0.133000000000     0          
O29      O      0.603300000000     0.729800000000     0.088700000000     0          
O30      O      0.362300000000     0.814300000000     0.007800000000     0          
O31      O      0.240700000000     0.555600000000     0.041500000000     0          
O32      O      0.567100000000     0.449800000000     0.030300000000     0          
C13      C      0.633000000000     0.802000000000     0.023400000000     0          
C14      C      0.495000000000     0.853000000000     0.971400000000     0          
C15      C      0.335600000000     0.420700000000     0.980200000000     0          
C16      C      0.525000000000     0.366000000000     0.973700000000     0          
O33      O      0.772200000000     0.833800000000     0.999100000000     0          


