data_ZOGROF

_audit_creation_method RASPA-1.0
_audit_creation_date 2020-4-3
_audit_author_name 'Rocio Bueno-Perez'

_cell_length_a    31.8175
_cell_length_b    15.5177
_cell_length_c    7.81106
_cell_angle_alpha 90
_cell_angle_beta  102.591
_cell_angle_gamma 90
_cell_volume      3763.84

_symmetry_cell_setting          monoclinic
_symmetry_space_group_name_Hall 'P 1'
_symmetry_space_group_name_H-M  'P 1'
_symmetry_Int_Tables_number     1

_symmetry_equiv_pos_as_xyz 'x,y,z'

loop_
_atom_site_label
_atom_site_type_symbol
_atom_site_fract_x
_atom_site_fract_y
_atom_site_fract_z
_atom_site_charge
Zr1      Zr     0.041262000000     0.986490000000     0.658790000000     0          
O1       O      0.027950000000     0.032910000000     0.401300000000     0          
C1       C      0.270290000000     0.275490000000     0.007990000000     0          
C2       C      0.293980000000     0.270220000000     0.876620000000     0          
C3       C      0.332000000000     0.317990000000     0.891610000000     0          
C4       C      0.346330000000     0.371030000000     0.037960000000     0          
C5       C      0.322640000000     0.376300000000     0.169330000000     0          
C6       C      0.284620000000     0.328530000000     0.154350000000     0          
C7       C      0.386910000000     0.422010000000     0.053950000000     0          
O2       O      0.409210000000     0.414470000000     0.939450000000     0          
O3       O      0.398850000000     0.472580000000     0.181950000000     0          
H1       H      0.347710000000     0.314490000000     0.804450000000     0          
H2       H      0.284470000000     0.235030000000     0.779530000000     0          
H3       H      0.332150000000     0.411490000000     0.266430000000     0          
H4       H      0.268900000000     0.332030000000     0.241500000000     0          
C8       C      0.000000000000     0.534410000000     0.750000000000     0          
C9       C      0.037610000000     0.579570000000     0.740920000000     0          
C10      C      0.037610000000     0.669910000000     0.740920000000     0          
C11      C      0.000000000000     0.715070000000     0.750000000000     0          
C12      C      0.000000000000     0.438000000000     0.750000000000     0          
C13      C      0.031700000000     0.392840000000     0.687210000000     0          
C14      C      0.031700000000     0.302500000000     0.687210000000     0          
C15      C      0.000000000000     0.257340000000     0.750000000000     0          
C16      C      0.000000000000     0.811470000000     0.750000000000     0          
C17      C      0.000000000000     0.160930000000     0.750000000000     0          
O4       O      0.028720000000     0.852160000000     0.694540000000     0          
O5       O      0.029490000000     0.120250000000     0.699670000000     0          
H5       H      0.063900000000     0.701480000000     0.734560000000     0          
H6       H      0.063900000000     0.548000000000     0.734560000000     0          
H7       H      0.053870000000     0.270930000000     0.643310000000     0          
H8       H      0.053870000000     0.424410000000     0.643310000000     0          
C1G      C      0.229710000000     0.224510000000     0.992010000000     0          
C2G      C      0.206020000000     0.229780000000     0.123380000000     0          
C3G      C      0.168000000000     0.182010000000     0.108390000000     0          
C4G      C      0.153670000000     0.128970000000     0.962040000000     0          
C5G      C      0.177360000000     0.123700000000     0.830670000000     0          
C6G      C      0.215380000000     0.171470000000     0.845650000000     0          
C7G      C      0.113090000000     0.077990000000     0.946050000000     0          
O2G      O      0.090790000000     0.085530000000     0.060550000000     0          
O3G      O      0.101150000000     0.027420000000     0.818050000000     0          
H1G      H      0.152290000000     0.185510000000     0.195550000000     0          
H2G      H      0.215530000000     0.264970000000     0.220470000000     0          
H3G      H      0.167850000000     0.088510000000     0.733570000000     0          
H4G      H      0.231100000000     0.167970000000     0.758500000000     0          
C9A      C      0.962390000000     0.579570000000     0.759080000000     0          
C10A     C      0.962390000000     0.669910000000     0.759080000000     0          
C13A     C      0.968300000000     0.392840000000     0.812790000000     0          
C14A     C      0.968300000000     0.302500000000     0.812790000000     0          
O4A      O      0.971280000000     0.852160000000     0.805460000000     0          
O5A      O      0.970510000000     0.120250000000     0.800330000000     0          
H5A      H      0.936100000000     0.701480000000     0.765440000000     0          
H6A      H      0.936100000000     0.548000000000     0.765440000000     0          
H7A      H      0.946130000000     0.270930000000     0.856690000000     0          
H8A      H      0.946130000000     0.424410000000     0.856690000000     0          
Zr1D     Zr     0.958738000000     0.013510000000     0.341210000000     0          
O1D      O      0.972050000000     0.967090000000     0.598700000000     0          
Zr1A     Zr     0.958738000000     0.986490000000     0.841210000000     0          
Zr1G     Zr     0.458738000000     0.513510000000     0.341210000000     0          
Zr1B     Zr     0.458738000000     0.486490000000     0.841210000000     0          
Zr1E     Zr     0.041262000000     0.013510000000     0.158790000000     0          
O1A      O      0.972050000000     0.032910000000     0.098700000000     0          
O1E      O      0.027950000000     0.967090000000     0.901300000000     0          
O2B      O      0.090790000000     0.914470000000     0.560550000000     0          
O2F      O      0.909210000000     0.085530000000     0.439450000000     0          
O3C      O      0.898850000000     0.972580000000     0.181950000000     0          
O4D      O      0.971280000000     0.147840000000     0.305460000000     0          
O5D      O      0.970510000000     0.879750000000     0.300330000000     0          
C1       C      0.729710000000     0.275490000000     0.492010000000     0          
C2       C      0.706020000000     0.270220000000     0.623380000000     0          
C3       C      0.668000000000     0.317990000000     0.608390000000     0          
C4       C      0.653670000000     0.371030000000     0.462040000000     0          
C5       C      0.677360000000     0.376300000000     0.330670000000     0          
C6       C      0.715380000000     0.328530000000     0.345650000000     0          
C7       C      0.613090000000     0.422010000000     0.446050000000     0          
O2       O      0.590790000000     0.414470000000     0.560550000000     0          
O3       O      0.601150000000     0.472580000000     0.318050000000     0          
H1       H      0.652290000000     0.314490000000     0.695550000000     0          
H2       H      0.715530000000     0.235030000000     0.720470000000     0          
H3       H      0.667850000000     0.411490000000     0.233570000000     0          
H4       H      0.731100000000     0.332030000000     0.258500000000     0          
C1G      C      0.770290000000     0.224510000000     0.507990000000     0          
C2G      C      0.793980000000     0.229780000000     0.376620000000     0          
C3G      C      0.832000000000     0.182010000000     0.391610000000     0          
C4G      C      0.846330000000     0.128970000000     0.537960000000     0          
C5G      C      0.822640000000     0.123700000000     0.669330000000     0          
C6G      C      0.784620000000     0.171470000000     0.654350000000     0          
C7G      C      0.886910000000     0.077990000000     0.553950000000     0          
O3G      O      0.898850000000     0.027420000000     0.681950000000     0          
H1G      H      0.847710000000     0.185510000000     0.304450000000     0          
H2G      H      0.784470000000     0.264970000000     0.279530000000     0          
H3G      H      0.832150000000     0.088510000000     0.766430000000     0          
H4G      H      0.768900000000     0.167970000000     0.741500000000     0          
Zr1G     Zr     0.541262000000     0.513510000000     0.158790000000     0          
Zr1B     Zr     0.541262000000     0.486490000000     0.658790000000     0          
O2B      O      0.909210000000     0.914470000000     0.939450000000     0          
O3C      O      0.101150000000     0.972580000000     0.318050000000     0          
O4D      O      0.028720000000     0.147840000000     0.194540000000     0          
O5D      O      0.029490000000     0.879750000000     0.199670000000     0          
C1       C      0.729710000000     0.724510000000     0.992010000000     0          
C2       C      0.706020000000     0.729780000000     0.123380000000     0          
C3       C      0.668000000000     0.682010000000     0.108390000000     0          
C4       C      0.653670000000     0.628970000000     0.962040000000     0          
C5       C      0.677360000000     0.623700000000     0.830670000000     0          
C6       C      0.715380000000     0.671470000000     0.845650000000     0          
C7       C      0.613090000000     0.577990000000     0.946050000000     0          
O2       O      0.590790000000     0.585530000000     0.060550000000     0          
O3       O      0.601150000000     0.527420000000     0.818050000000     0          
H1       H      0.652290000000     0.685510000000     0.195550000000     0          
H2       H      0.715530000000     0.764970000000     0.220470000000     0          
H3       H      0.667850000000     0.588510000000     0.733570000000     0          
H4       H      0.731100000000     0.667970000000     0.758500000000     0          
C8       C      0.000000000000     0.465590000000     0.250000000000     0          
C9       C      0.962390000000     0.420430000000     0.259080000000     0          
C10      C      0.962390000000     0.330090000000     0.259080000000     0          
C11      C      0.000000000000     0.284930000000     0.250000000000     0          
C12      C      0.000000000000     0.562000000000     0.250000000000     0          
C13      C      0.968300000000     0.607160000000     0.312790000000     0          
C14      C      0.968300000000     0.697500000000     0.312790000000     0          
C15      C      0.000000000000     0.742660000000     0.250000000000     0          
C16      C      0.000000000000     0.188530000000     0.250000000000     0          
C17      C      0.000000000000     0.839070000000     0.250000000000     0          
H5       H      0.936100000000     0.298520000000     0.265440000000     0          
H6       H      0.936100000000     0.452000000000     0.265440000000     0          
H7       H      0.946130000000     0.729070000000     0.356690000000     0          
H8       H      0.946130000000     0.575590000000     0.356690000000     0          
C1G      C      0.770290000000     0.775490000000     0.007990000000     0          
C2G      C      0.793980000000     0.770220000000     0.876620000000     0          
C3G      C      0.832000000000     0.817990000000     0.891610000000     0          
C4G      C      0.846330000000     0.871030000000     0.037960000000     0          
C5G      C      0.822640000000     0.876300000000     0.169330000000     0          
C6G      C      0.784620000000     0.828530000000     0.154350000000     0          
C7G      C      0.886910000000     0.922010000000     0.053950000000     0          
H1G      H      0.847710000000     0.814490000000     0.804450000000     0          
H2G      H      0.784470000000     0.735030000000     0.779530000000     0          
H3G      H      0.832150000000     0.911490000000     0.266430000000     0          
H4G      H      0.768900000000     0.832030000000     0.241500000000     0          
C9A      C      0.037610000000     0.420430000000     0.240920000000     0          
C10A     C      0.037610000000     0.330090000000     0.240920000000     0          
C13A     C      0.031700000000     0.607160000000     0.187210000000     0          
C14A     C      0.031700000000     0.697500000000     0.187210000000     0          
H5A      H      0.063900000000     0.298520000000     0.234560000000     0          
H6A      H      0.063900000000     0.452000000000     0.234560000000     0          
H7A      H      0.053870000000     0.729070000000     0.143310000000     0          
H8A      H      0.053870000000     0.575590000000     0.143310000000     0          
C1       C      0.270290000000     0.724510000000     0.507990000000     0          
C2       C      0.293980000000     0.729780000000     0.376620000000     0          
C3       C      0.332000000000     0.682010000000     0.391610000000     0          
C4       C      0.346330000000     0.628970000000     0.537960000000     0          
C5       C      0.322640000000     0.623700000000     0.669330000000     0          
C6       C      0.284620000000     0.671470000000     0.654350000000     0          
C7       C      0.386910000000     0.577990000000     0.553950000000     0          
O2       O      0.409210000000     0.585530000000     0.439450000000     0          
O3       O      0.398850000000     0.527420000000     0.681950000000     0          
H1       H      0.347710000000     0.685510000000     0.304450000000     0          
H2       H      0.284470000000     0.764970000000     0.279530000000     0          
H3       H      0.332150000000     0.588510000000     0.766430000000     0          
H4       H      0.268900000000     0.667970000000     0.741500000000     0          
C1G      C      0.229710000000     0.775490000000     0.492010000000     0          
C2G      C      0.206020000000     0.770220000000     0.623380000000     0          
C3G      C      0.168000000000     0.817990000000     0.608390000000     0          
C4G      C      0.153670000000     0.871030000000     0.462040000000     0          
C5G      C      0.177360000000     0.876300000000     0.330670000000     0          
C6G      C      0.215380000000     0.828530000000     0.345650000000     0          
C7G      C      0.113090000000     0.922010000000     0.446050000000     0          
H1G      H      0.152290000000     0.814490000000     0.695550000000     0          
H2G      H      0.215530000000     0.735030000000     0.720470000000     0          
H3G      H      0.167850000000     0.911490000000     0.233570000000     0          
H4G      H      0.231100000000     0.832030000000     0.258500000000     0          
O1       O      0.527950000000     0.532910000000     0.401300000000     0          
C8       C      0.500000000000     0.034410000000     0.750000000000     0          
C9       C      0.537610000000     0.079570000000     0.740920000000     0          
C10      C      0.537610000000     0.169910000000     0.740920000000     0          
C11      C      0.500000000000     0.215070000000     0.750000000000     0          
C12      C      0.500000000000     0.938000000000     0.750000000000     0          
C13      C      0.531700000000     0.892840000000     0.687210000000     0          
C14      C      0.531700000000     0.802500000000     0.687210000000     0          
C15      C      0.500000000000     0.757340000000     0.750000000000     0          
C16      C      0.500000000000     0.311470000000     0.750000000000     0          
C17      C      0.500000000000     0.660930000000     0.750000000000     0          
O4       O      0.528720000000     0.352160000000     0.694540000000     0          
O5       O      0.529490000000     0.620250000000     0.699670000000     0          
H5       H      0.563900000000     0.201480000000     0.734560000000     0          
H6       H      0.563900000000     0.048000000000     0.734560000000     0          
H7       H      0.553870000000     0.770930000000     0.643310000000     0          
H8       H      0.553870000000     0.924410000000     0.643310000000     0          
C9A      C      0.462390000000     0.079570000000     0.759080000000     0          
C10A     C      0.462390000000     0.169910000000     0.759080000000     0          
C13A     C      0.468300000000     0.892840000000     0.812790000000     0          
C14A     C      0.468300000000     0.802500000000     0.812790000000     0          
O4A      O      0.471280000000     0.352160000000     0.805460000000     0          
O5A      O      0.470510000000     0.620250000000     0.800330000000     0          
H5A      H      0.436100000000     0.201480000000     0.765440000000     0          
H6A      H      0.436100000000     0.048000000000     0.765440000000     0          
H7A      H      0.446130000000     0.770930000000     0.856690000000     0          
H8A      H      0.446130000000     0.924410000000     0.856690000000     0          
O1D      O      0.472050000000     0.467090000000     0.598700000000     0          
O1A      O      0.472050000000     0.532910000000     0.098700000000     0          
O1E      O      0.527950000000     0.467090000000     0.901300000000     0          
O4D      O      0.471280000000     0.647840000000     0.305460000000     0          
O5D      O      0.470510000000     0.379750000000     0.300330000000     0          
O4D      O      0.528720000000     0.647840000000     0.194540000000     0          
O5D      O      0.529490000000     0.379750000000     0.199670000000     0          
C8       C      0.500000000000     0.965590000000     0.250000000000     0          
C9       C      0.462390000000     0.920430000000     0.259080000000     0          
C10      C      0.462390000000     0.830090000000     0.259080000000     0          
C11      C      0.500000000000     0.784930000000     0.250000000000     0          
C12      C      0.500000000000     0.062000000000     0.250000000000     0          
C13      C      0.468300000000     0.107160000000     0.312790000000     0          
C14      C      0.468300000000     0.197500000000     0.312790000000     0          
C15      C      0.500000000000     0.242660000000     0.250000000000     0          
C16      C      0.500000000000     0.688530000000     0.250000000000     0          
C17      C      0.500000000000     0.339070000000     0.250000000000     0          
H5       H      0.436100000000     0.798520000000     0.265440000000     0          
H6       H      0.436100000000     0.952000000000     0.265440000000     0          
H7       H      0.446130000000     0.229070000000     0.356690000000     0          
H8       H      0.446130000000     0.075590000000     0.356690000000     0          
C9A      C      0.537610000000     0.920430000000     0.240920000000     0          
C10A     C      0.537610000000     0.830090000000     0.240920000000     0          
C13A     C      0.531700000000     0.107160000000     0.187210000000     0          
C14A     C      0.531700000000     0.197500000000     0.187210000000     0          
H5A      H      0.563900000000     0.798520000000     0.234560000000     0          
H6A      H      0.563900000000     0.952000000000     0.234560000000     0          
H7A      H      0.553870000000     0.229070000000     0.143310000000     0          
H8A      H      0.553870000000     0.075590000000     0.143310000000     0          


