data_ZOGRIZ

_audit_creation_method RASPA-1.0
_audit_creation_date 2020-4-3
_audit_author_name 'Rocio Bueno-Perez'

_cell_length_a    31.4689
_cell_length_b    15.364
_cell_length_c    7.7602
_cell_angle_alpha 90
_cell_angle_beta  101.527
_cell_angle_gamma 90
_cell_volume      3676.29

_symmetry_cell_setting          monoclinic
_symmetry_space_group_name_Hall 'P 1'
_symmetry_space_group_name_H-M  'P 1'
_symmetry_Int_Tables_number     1

_symmetry_equiv_pos_as_xyz 'x,y,z'

loop_
_atom_site_label
_atom_site_type_symbol
_atom_site_fract_x
_atom_site_fract_y
_atom_site_fract_z
_atom_site_charge
Zr1      Zr     0.960400000000     0.978160000000     0.852000000000     0          
Zr2      Zr     0.046020000000     0.987160000000     0.679300000000     0          
O1       O      0.977950000000     0.963200000000     0.598700000000     0          
O2       O      0.030300000000     0.961900000000     0.928600000000     0          
C1       C      0.281990000000     0.242780000000     0.030960000000     0          
N1       N      0.304730000000     0.243790000000     0.894700000000     0          
C2       C      0.342950000000     0.291280000000     0.911830000000     0          
C3       C      0.358430000000     0.337760000000     0.065230000000     0          
C4       C      0.335690000000     0.336760000000     0.201490000000     0          
C5       C      0.297470000000     0.289260000000     0.184360000000     0          
C6       C      0.241550000000     0.192530000000     0.012840000000     0          
C7       C      0.226070000000     0.146040000000     0.859440000000     0          
C8       C      0.187850000000     0.098550000000     0.842310000000     0          
C9       C      0.165110000000     0.097540000000     0.978570000000     0          
C10      C      0.180600000000     0.144030000000     0.131970000000     0          
N2       N      0.218820000000     0.191520000000     0.149100000000     0          
C11      C      0.398870000000     0.388010000000     0.083350000000     0          
C12      C      0.124680000000     0.047290000000     0.960440000000     0          
O3       O      0.425150000000     0.372950000000     0.980550000000     0          
O4       O      0.407770000000     0.446800000000     0.201940000000     0          
O5       O      0.113110000000     0.996340000000     0.828950000000     0          
O6       O      0.101050000000     0.054530000000     0.076160000000     0          
H1       H      0.358160000000     0.291950000000     0.820670000000     0          
H2       H      0.346050000000     0.367850000000     0.304110000000     0          
O7       O      0.275400000000     0.288290000000     0.316680000000     0          
H3       H      0.177490000000     0.067450000000     0.739690000000     0          
O8       O      0.248150000000     0.147020000000     0.727120000000     0          
H4       H      0.165390000000     0.143360000000     0.223120000000     0          
C13      C      0.991830000000     0.531540000000     0.728940000000     0          
N3       N      0.027050000000     0.574710000000     0.685300000000     0          
C14      C      0.027260000000     0.665080000000     0.676590000000     0          
C15      C      0.992250000000     0.712290000000     0.711510000000     0          
C16      C      0.957030000000     0.669120000000     0.755150000000     0          
C17      C      0.956820000000     0.578750000000     0.763860000000     0          
C18      C      0.991620000000     0.435920000000     0.738160000000     0          
C19      C      0.026630000000     0.388710000000     0.703230000000     0          
C20      C      0.026420000000     0.298340000000     0.711940000000     0          
C21      C      0.991200000000     0.255170000000     0.755580000000     0          
C22      C      0.956190000000     0.302380000000     0.790500000000     0          
N4       N      0.956400000000     0.392750000000     0.781790000000     0          
C23      C      0.992460000000     0.807910000000     0.702300000000     0          
C24      C      0.990990000000     0.159550000000     0.764800000000     0          
O9       O      0.025960000000     0.847880000000     0.672680000000     0          
O10      O      0.959160000000     0.851130000000     0.723900000000     0          
O11      O      0.015700000000     0.115140000000     0.685670000000     0          
O12      O      0.966090000000     0.120770000000     0.851940000000     0          
H5       H      0.050820000000     0.693960000000     0.647400000000     0          
H6       H      0.933610000000     0.700700000000     0.778510000000     0          
O13      O      0.922620000000     0.536830000000     0.806230000000     0          
O14      O      0.060830000000     0.430630000000     0.660860000000     0          
H7       H      0.049840000000     0.266760000000     0.688580000000     0          
H8       H      0.932630000000     0.273500000000     0.819690000000     0          
Zr1      Zr     0.960400000000     0.021840000000     0.352000000000     0          
Zr2      Zr     0.046020000000     0.012840000000     0.179300000000     0          
O1       O      0.977950000000     0.036800000000     0.098700000000     0          
O2       O      0.030300000000     0.038100000000     0.428600000000     0          
C1       C      0.281990000000     0.757220000000     0.530960000000     0          
N1       N      0.304730000000     0.756210000000     0.394700000000     0          
C2       C      0.342950000000     0.708720000000     0.411830000000     0          
C3       C      0.358430000000     0.662240000000     0.565230000000     0          
C4       C      0.335690000000     0.663240000000     0.701490000000     0          
C5       C      0.297470000000     0.710740000000     0.684360000000     0          
C6       C      0.241550000000     0.807470000000     0.512840000000     0          
C7       C      0.226070000000     0.853960000000     0.359440000000     0          
C8       C      0.187850000000     0.901450000000     0.342310000000     0          
C9       C      0.165110000000     0.902460000000     0.478570000000     0          
C10      C      0.180600000000     0.855970000000     0.631970000000     0          
N2       N      0.218820000000     0.808480000000     0.649100000000     0          
C11      C      0.398870000000     0.611990000000     0.583350000000     0          
C12      C      0.124680000000     0.952710000000     0.460440000000     0          
O3       O      0.425150000000     0.627050000000     0.480550000000     0          
O4       O      0.407770000000     0.553200000000     0.701940000000     0          
O5       O      0.113110000000     0.003660000000     0.328950000000     0          
O6       O      0.101050000000     0.945470000000     0.576160000000     0          
H1       H      0.358160000000     0.708050000000     0.320670000000     0          
H2       H      0.346050000000     0.632150000000     0.804110000000     0          
O7       O      0.275400000000     0.711710000000     0.816680000000     0          
H3       H      0.177490000000     0.932550000000     0.239690000000     0          
O8       O      0.248150000000     0.852980000000     0.227120000000     0          
H4       H      0.165390000000     0.856640000000     0.723120000000     0          
C13      C      0.991830000000     0.468460000000     0.228940000000     0          
N3       N      0.027050000000     0.425290000000     0.185300000000     0          
C14      C      0.027260000000     0.334920000000     0.176590000000     0          
C15      C      0.992250000000     0.287710000000     0.211510000000     0          
C16      C      0.957030000000     0.330880000000     0.255150000000     0          
C17      C      0.956820000000     0.421250000000     0.263860000000     0          
C18      C      0.991620000000     0.564080000000     0.238160000000     0          
C19      C      0.026630000000     0.611290000000     0.203230000000     0          
C20      C      0.026420000000     0.701660000000     0.211940000000     0          
C21      C      0.991200000000     0.744830000000     0.255580000000     0          
C22      C      0.956190000000     0.697620000000     0.290500000000     0          
N4       N      0.956400000000     0.607250000000     0.281790000000     0          
C23      C      0.992460000000     0.192090000000     0.202300000000     0          
C24      C      0.990990000000     0.840450000000     0.264800000000     0          
O9       O      0.025960000000     0.152120000000     0.172680000000     0          
O10      O      0.959160000000     0.148870000000     0.223900000000     0          
O11      O      0.015700000000     0.884860000000     0.185670000000     0          
O12      O      0.966090000000     0.879230000000     0.351940000000     0          
H5       H      0.050820000000     0.306040000000     0.147400000000     0          
H6       H      0.933610000000     0.299300000000     0.278510000000     0          
O13      O      0.922620000000     0.463170000000     0.306230000000     0          
O14      O      0.060830000000     0.569370000000     0.160860000000     0          
H7       H      0.049840000000     0.733240000000     0.188580000000     0          
H8       H      0.932630000000     0.726500000000     0.319690000000     0          
Zr1      Zr     0.460400000000     0.478160000000     0.852000000000     0          
Zr2      Zr     0.546020000000     0.487160000000     0.679300000000     0          
O1       O      0.477950000000     0.463200000000     0.598700000000     0          
O2       O      0.530300000000     0.461900000000     0.928600000000     0          
C1       C      0.781990000000     0.742780000000     0.030960000000     0          
N1       N      0.804730000000     0.743790000000     0.894700000000     0          
C2       C      0.842950000000     0.791280000000     0.911830000000     0          
C3       C      0.858430000000     0.837760000000     0.065230000000     0          
C4       C      0.835690000000     0.836760000000     0.201490000000     0          
C5       C      0.797470000000     0.789260000000     0.184360000000     0          
C6       C      0.741550000000     0.692530000000     0.012840000000     0          
C7       C      0.726070000000     0.646040000000     0.859440000000     0          
C8       C      0.687850000000     0.598550000000     0.842310000000     0          
C9       C      0.665110000000     0.597540000000     0.978570000000     0          
C10      C      0.680600000000     0.644030000000     0.131970000000     0          
N2       N      0.718820000000     0.691520000000     0.149100000000     0          
C11      C      0.898870000000     0.888010000000     0.083350000000     0          
C12      C      0.624680000000     0.547290000000     0.960440000000     0          
O3       O      0.925150000000     0.872950000000     0.980550000000     0          
O4       O      0.907770000000     0.946800000000     0.201940000000     0          
O5       O      0.613110000000     0.496340000000     0.828950000000     0          
O6       O      0.601050000000     0.554530000000     0.076160000000     0          
H1       H      0.858160000000     0.791950000000     0.820670000000     0          
H2       H      0.846050000000     0.867850000000     0.304110000000     0          
O7       O      0.775400000000     0.788290000000     0.316680000000     0          
H3       H      0.677490000000     0.567450000000     0.739690000000     0          
O8       O      0.748150000000     0.647020000000     0.727120000000     0          
H4       H      0.665390000000     0.643360000000     0.223120000000     0          
C13      C      0.491830000000     0.031540000000     0.728940000000     0          
N3       N      0.527050000000     0.074710000000     0.685300000000     0          
C14      C      0.527260000000     0.165080000000     0.676590000000     0          
C15      C      0.492250000000     0.212290000000     0.711510000000     0          
C16      C      0.457030000000     0.169120000000     0.755150000000     0          
C17      C      0.456820000000     0.078750000000     0.763860000000     0          
C18      C      0.491620000000     0.935920000000     0.738160000000     0          
C19      C      0.526630000000     0.888710000000     0.703230000000     0          
C20      C      0.526420000000     0.798340000000     0.711940000000     0          
C21      C      0.491200000000     0.755170000000     0.755580000000     0          
C22      C      0.456190000000     0.802380000000     0.790500000000     0          
N4       N      0.456400000000     0.892750000000     0.781790000000     0          
C23      C      0.492460000000     0.307910000000     0.702300000000     0          
C24      C      0.490990000000     0.659550000000     0.764800000000     0          
O9       O      0.525960000000     0.347880000000     0.672680000000     0          
O10      O      0.459160000000     0.351130000000     0.723900000000     0          
O11      O      0.515700000000     0.615140000000     0.685670000000     0          
O12      O      0.466090000000     0.620770000000     0.851940000000     0          
H5       H      0.550820000000     0.193960000000     0.647400000000     0          
H6       H      0.433610000000     0.200700000000     0.778510000000     0          
O13      O      0.422620000000     0.036830000000     0.806230000000     0          
O14      O      0.560830000000     0.930630000000     0.660860000000     0          
H7       H      0.549840000000     0.766760000000     0.688580000000     0          
H8       H      0.432630000000     0.773500000000     0.819690000000     0          
Zr1      Zr     0.460400000000     0.521840000000     0.352000000000     0          
Zr2      Zr     0.546020000000     0.512840000000     0.179300000000     0          
O1       O      0.477950000000     0.536800000000     0.098700000000     0          
O2       O      0.530300000000     0.538100000000     0.428600000000     0          
C1       C      0.781990000000     0.257220000000     0.530960000000     0          
N1       N      0.804730000000     0.256210000000     0.394700000000     0          
C2       C      0.842950000000     0.208720000000     0.411830000000     0          
C3       C      0.858430000000     0.162240000000     0.565230000000     0          
C4       C      0.835690000000     0.163240000000     0.701490000000     0          
C5       C      0.797470000000     0.210740000000     0.684360000000     0          
C6       C      0.741550000000     0.307470000000     0.512840000000     0          
C7       C      0.726070000000     0.353960000000     0.359440000000     0          
C8       C      0.687850000000     0.401450000000     0.342310000000     0          
C9       C      0.665110000000     0.402460000000     0.478570000000     0          
C10      C      0.680600000000     0.355970000000     0.631970000000     0          
N2       N      0.718820000000     0.308480000000     0.649100000000     0          
C11      C      0.898870000000     0.111990000000     0.583350000000     0          
C12      C      0.624680000000     0.452710000000     0.460440000000     0          
O3       O      0.925150000000     0.127050000000     0.480550000000     0          
O4       O      0.907770000000     0.053200000000     0.701940000000     0          
O5       O      0.613110000000     0.503660000000     0.328950000000     0          
O6       O      0.601050000000     0.445470000000     0.576160000000     0          
H1       H      0.858160000000     0.208050000000     0.320670000000     0          
H2       H      0.846050000000     0.132150000000     0.804110000000     0          
O7       O      0.775400000000     0.211710000000     0.816680000000     0          
H3       H      0.677490000000     0.432550000000     0.239690000000     0          
O8       O      0.748150000000     0.352980000000     0.227120000000     0          
H4       H      0.665390000000     0.356640000000     0.723120000000     0          
C13      C      0.491830000000     0.968460000000     0.228940000000     0          
N3       N      0.527050000000     0.925290000000     0.185300000000     0          
C14      C      0.527260000000     0.834920000000     0.176590000000     0          
C15      C      0.492250000000     0.787710000000     0.211510000000     0          
C16      C      0.457030000000     0.830880000000     0.255150000000     0          
C17      C      0.456820000000     0.921250000000     0.263860000000     0          
C18      C      0.491620000000     0.064080000000     0.238160000000     0          
C19      C      0.526630000000     0.111290000000     0.203230000000     0          
C20      C      0.526420000000     0.201660000000     0.211940000000     0          
C21      C      0.491200000000     0.244830000000     0.255580000000     0          
C22      C      0.456190000000     0.197620000000     0.290500000000     0          
N4       N      0.456400000000     0.107250000000     0.281790000000     0          
C23      C      0.492460000000     0.692090000000     0.202300000000     0          
C24      C      0.490990000000     0.340450000000     0.264800000000     0          
O9       O      0.525960000000     0.652120000000     0.172680000000     0          
O10      O      0.459160000000     0.648870000000     0.223900000000     0          
O11      O      0.515700000000     0.384860000000     0.185670000000     0          
O12      O      0.466090000000     0.379230000000     0.351940000000     0          
H5       H      0.550820000000     0.806040000000     0.147400000000     0          
H6       H      0.433610000000     0.799300000000     0.278510000000     0          
O13      O      0.422620000000     0.963170000000     0.306230000000     0          
O14      O      0.560830000000     0.069370000000     0.160860000000     0          
H7       H      0.549840000000     0.233240000000     0.188580000000     0          
H8       H      0.432630000000     0.226500000000     0.319690000000     0          


