data_ZOHXIG

_audit_creation_method RASPA-1.0
_audit_creation_date 2020-11-2
_audit_author_name 'Rocio Bueno-Perez'

_cell_length_a    11.677
_cell_length_b    17.804
_cell_length_c    25.696
_cell_angle_alpha 90
_cell_angle_beta  90
_cell_angle_gamma 90
_cell_volume      5342.13

_symmetry_cell_setting          triclinic
_symmetry_space_group_name_Hall 'P 1'
_symmetry_space_group_name_H-M  'P 1'
_symmetry_Int_Tables_number     1

_symmetry_equiv_pos_as_xyz 'x,y,z'

loop_
_atom_site_label
_atom_site_type_symbol
_atom_site_fract_x
_atom_site_fract_y
_atom_site_fract_z
_atom_site_charge
O1       O      0.209700000000     0.358940000000     0.421930000000     0          
O2       O      0.112900000000     0.425200000000     0.361750000000     0          
C3       C      0.178500000000     0.372700000000     0.375230000000     0          
C4       C      0.220300000000     0.321600000000     0.333450000000     0          
C5       C      0.298700000000     0.264100000000     0.345030000000     0          
H6       H      0.333780000000     0.258010000000     0.386220000000     0          
C7       C      0.333000000000     0.215100000000     0.306370000000     0          
H8       H      0.396820000000     0.168500000000     0.315570000000     0          
C9       C      0.176200000000     0.327800000000     0.284090000000     0          
H10      H      0.111310000000     0.373730000000     0.274810000000     0          
C11      C      0.209500000000     0.278400000000     0.244400000000     0          
O12      O      0.709700000000     0.858940000000     0.921930000000     0          
O13      O      0.612900000000     0.925200000000     0.861750000000     0          
C14      C      0.678500000000     0.872700000000     0.875230000000     0          
C15      C      0.720300000000     0.821600000000     0.833450000000     0          
C16      C      0.798700000000     0.764100000000     0.845030000000     0          
H17      H      0.833780000000     0.758010000000     0.886220000000     0          
C18      C      0.833000000000     0.715100000000     0.806370000000     0          
H19      H      0.896820000000     0.668500000000     0.815570000000     0          
C20      C      0.676200000000     0.827800000000     0.784090000000     0          
H21      H      0.611310000000     0.873730000000     0.774810000000     0          
C22      C      0.709500000000     0.778400000000     0.744400000000     0          
O23      O      0.790300000000     0.641060000000     0.421930000000     0          
O24      O      0.887100000000     0.574800000000     0.361750000000     0          
C25      C      0.821500000000     0.627300000000     0.375230000000     0          
C26      C      0.779700000000     0.678400000000     0.333450000000     0          
C27      C      0.701300000000     0.735900000000     0.345030000000     0          
H28      H      0.666220000000     0.741990000000     0.386220000000     0          
C29      C      0.667000000000     0.784900000000     0.306370000000     0          
H30      H      0.603180000000     0.831500000000     0.315570000000     0          
C31      C      0.823800000000     0.672200000000     0.284090000000     0          
H32      H      0.888690000000     0.626270000000     0.274810000000     0          
C33      C      0.790500000000     0.721600000000     0.244400000000     0          
O34      O      0.290300000000     0.141060000000     0.921930000000     0          
O35      O      0.387100000000     0.074800000000     0.861750000000     0          
C36      C      0.321500000000     0.127300000000     0.875230000000     0          
C37      C      0.279700000000     0.178400000000     0.833450000000     0          
C38      C      0.201300000000     0.235900000000     0.845030000000     0          
H39      H      0.166220000000     0.241990000000     0.886220000000     0          
C40      C      0.167000000000     0.284900000000     0.806370000000     0          
H41      H      0.103180000000     0.331500000000     0.815570000000     0          
C42      C      0.323800000000     0.172200000000     0.784090000000     0          
H43      H      0.388690000000     0.126270000000     0.774810000000     0          
C44      C      0.290500000000     0.221600000000     0.744400000000     0          
O45      O      0.790300000000     0.358940000000     0.578070000000     0          
O46      O      0.887100000000     0.425200000000     0.638250000000     0          
C47      C      0.821500000000     0.372700000000     0.624770000000     0          
C48      C      0.779700000000     0.321600000000     0.666550000000     0          
C49      C      0.701300000000     0.264100000000     0.654970000000     0          
H50      H      0.666220000000     0.258010000000     0.613780000000     0          
C51      C      0.667000000000     0.215100000000     0.693630000000     0          
H52      H      0.603180000000     0.168500000000     0.684430000000     0          
C53      C      0.823800000000     0.327800000000     0.715910000000     0          
H54      H      0.888690000000     0.373730000000     0.725190000000     0          
C55      C      0.790500000000     0.278400000000     0.755600000000     0          
O56      O      0.290300000000     0.858940000000     0.078070000000     0          
O57      O      0.387100000000     0.925200000000     0.138250000000     0          
C58      C      0.321500000000     0.872700000000     0.124770000000     0          
C59      C      0.279700000000     0.821600000000     0.166550000000     0          
C60      C      0.201300000000     0.764100000000     0.154970000000     0          
H61      H      0.166220000000     0.758010000000     0.113780000000     0          
C62      C      0.167000000000     0.715100000000     0.193630000000     0          
H63      H      0.103180000000     0.668500000000     0.184430000000     0          
C64      C      0.323800000000     0.827800000000     0.215910000000     0          
H65      H      0.388690000000     0.873730000000     0.225190000000     0          
C66      C      0.290500000000     0.778400000000     0.255600000000     0          
O67      O      0.209700000000     0.641060000000     0.578070000000     0          
O68      O      0.112900000000     0.574800000000     0.638250000000     0          
C69      C      0.178500000000     0.627300000000     0.624770000000     0          
C70      C      0.220300000000     0.678400000000     0.666550000000     0          
C71      C      0.298700000000     0.735900000000     0.654970000000     0          
H72      H      0.333780000000     0.741990000000     0.613780000000     0          
C73      C      0.333000000000     0.784900000000     0.693630000000     0          
H74      H      0.396820000000     0.831500000000     0.684430000000     0          
C75      C      0.176200000000     0.672200000000     0.715910000000     0          
H76      H      0.111310000000     0.626270000000     0.725190000000     0          
C77      C      0.209500000000     0.721600000000     0.755600000000     0          
O78      O      0.709700000000     0.141060000000     0.078070000000     0          
O79      O      0.612900000000     0.074800000000     0.138250000000     0          
C80      C      0.678500000000     0.127300000000     0.124770000000     0          
C81      C      0.720300000000     0.178400000000     0.166550000000     0          
C82      C      0.798700000000     0.235900000000     0.154970000000     0          
H83      H      0.833780000000     0.241990000000     0.113780000000     0          
C84      C      0.833000000000     0.284900000000     0.193630000000     0          
H85      H      0.896820000000     0.331500000000     0.184430000000     0          
C86      C      0.676200000000     0.172200000000     0.215910000000     0          
H87      H      0.611310000000     0.126270000000     0.225190000000     0          
C88      C      0.709500000000     0.221600000000     0.255600000000     0          
O89      O      0.790300000000     0.641060000000     0.578070000000     0          
O90      O      0.887100000000     0.574800000000     0.638250000000     0          
C91      C      0.821500000000     0.627300000000     0.624770000000     0          
C92      C      0.779700000000     0.678400000000     0.666550000000     0          
C93      C      0.701300000000     0.735900000000     0.654970000000     0          
H94      H      0.666220000000     0.741990000000     0.613780000000     0          
C95      C      0.667000000000     0.784900000000     0.693630000000     0          
H96      H      0.603180000000     0.831500000000     0.684430000000     0          
C97      C      0.823800000000     0.672200000000     0.715910000000     0          
H98      H      0.888690000000     0.626270000000     0.725190000000     0          
C99      C      0.790500000000     0.721600000000     0.755600000000     0          
O100     O      0.290300000000     0.141060000000     0.078070000000     0          
O101     O      0.387100000000     0.074800000000     0.138250000000     0          
C102     C      0.321500000000     0.127300000000     0.124770000000     0          
C103     C      0.279700000000     0.178400000000     0.166550000000     0          
C104     C      0.201300000000     0.235900000000     0.154970000000     0          
H105     H      0.166220000000     0.241990000000     0.113780000000     0          
C106     C      0.167000000000     0.284900000000     0.193630000000     0          
H107     H      0.103180000000     0.331500000000     0.184430000000     0          
C108     C      0.323800000000     0.172200000000     0.215910000000     0          
H109     H      0.388690000000     0.126270000000     0.225190000000     0          
C110     C      0.290500000000     0.221600000000     0.255600000000     0          
O111     O      0.209700000000     0.358940000000     0.578070000000     0          
O112     O      0.112900000000     0.425200000000     0.638250000000     0          
C113     C      0.178500000000     0.372700000000     0.624770000000     0          
C114     C      0.220300000000     0.321600000000     0.666550000000     0          
C115     C      0.298700000000     0.264100000000     0.654970000000     0          
H116     H      0.333780000000     0.258010000000     0.613780000000     0          
C117     C      0.333000000000     0.215100000000     0.693630000000     0          
H118     H      0.396820000000     0.168500000000     0.684430000000     0          
C119     C      0.176200000000     0.327800000000     0.715910000000     0          
H120     H      0.111310000000     0.373730000000     0.725190000000     0          
C121     C      0.209500000000     0.278400000000     0.755600000000     0          
O122     O      0.709700000000     0.858940000000     0.078070000000     0          
O123     O      0.612900000000     0.925200000000     0.138250000000     0          
C124     C      0.678500000000     0.872700000000     0.124770000000     0          
C125     C      0.720300000000     0.821600000000     0.166550000000     0          
C126     C      0.798700000000     0.764100000000     0.154970000000     0          
H127     H      0.833780000000     0.758010000000     0.113780000000     0          
C128     C      0.833000000000     0.715100000000     0.193630000000     0          
H129     H      0.896820000000     0.668500000000     0.184430000000     0          
C130     C      0.676200000000     0.827800000000     0.215910000000     0          
H131     H      0.611310000000     0.873730000000     0.225190000000     0          
C132     C      0.709500000000     0.778400000000     0.255600000000     0          
O133     O      0.209700000000     0.641060000000     0.421930000000     0          
O134     O      0.112900000000     0.574800000000     0.361750000000     0          
C135     C      0.178500000000     0.627300000000     0.375230000000     0          
C136     C      0.220300000000     0.678400000000     0.333450000000     0          
C137     C      0.298700000000     0.735900000000     0.345030000000     0          
H138     H      0.333780000000     0.741990000000     0.386220000000     0          
C139     C      0.333000000000     0.784900000000     0.306370000000     0          
H140     H      0.396820000000     0.831500000000     0.315570000000     0          
C141     C      0.176200000000     0.672200000000     0.284090000000     0          
H142     H      0.111310000000     0.626270000000     0.274810000000     0          
C143     C      0.209500000000     0.721600000000     0.244400000000     0          
O144     O      0.709700000000     0.141060000000     0.921930000000     0          
O145     O      0.612900000000     0.074800000000     0.861750000000     0          
C146     C      0.678500000000     0.127300000000     0.875230000000     0          
C147     C      0.720300000000     0.178400000000     0.833450000000     0          
C148     C      0.798700000000     0.235900000000     0.845030000000     0          
H149     H      0.833780000000     0.241990000000     0.886220000000     0          
C150     C      0.833000000000     0.284900000000     0.806370000000     0          
H151     H      0.896820000000     0.331500000000     0.815570000000     0          
C152     C      0.676200000000     0.172200000000     0.784090000000     0          
H153     H      0.611310000000     0.126270000000     0.774810000000     0          
C154     C      0.709500000000     0.221600000000     0.744400000000     0          
O155     O      0.790300000000     0.358940000000     0.421930000000     0          
O156     O      0.887100000000     0.425200000000     0.361750000000     0          
C157     C      0.821500000000     0.372700000000     0.375230000000     0          
C158     C      0.779700000000     0.321600000000     0.333450000000     0          
C159     C      0.701300000000     0.264100000000     0.345030000000     0          
H160     H      0.666220000000     0.258010000000     0.386220000000     0          
C161     C      0.667000000000     0.215100000000     0.306370000000     0          
H162     H      0.603180000000     0.168500000000     0.315570000000     0          
C163     C      0.823800000000     0.327800000000     0.284090000000     0          
H164     H      0.888690000000     0.373730000000     0.274810000000     0          
C165     C      0.790500000000     0.278400000000     0.244400000000     0          
O166     O      0.290300000000     0.858940000000     0.921930000000     0          
O167     O      0.387100000000     0.925200000000     0.861750000000     0          
C168     C      0.321500000000     0.872700000000     0.875230000000     0          
C169     C      0.279700000000     0.821600000000     0.833450000000     0          
C170     C      0.201300000000     0.764100000000     0.845030000000     0          
H171     H      0.166220000000     0.758010000000     0.886220000000     0          
C172     C      0.167000000000     0.715100000000     0.806370000000     0          
H173     H      0.103180000000     0.668500000000     0.815570000000     0          
C174     C      0.323800000000     0.827800000000     0.784090000000     0          
H175     H      0.388690000000     0.873730000000     0.774810000000     0          
C176     C      0.290500000000     0.778400000000     0.744400000000     0          
Zr177    Zr     0.151620000000     0.400640000000     0.500000000000     0          
O178     O      0.340000000000     0.404500000000     0.500000000000     0          
O179     O      0.142100000000     0.276100000000     0.500000000000     0          
Zr180    Zr     0.651620000000     0.900640000000     0.000000000000     0          
O181     O      0.840000000000     0.904500000000     0.000000000000     0          
O182     O      0.642100000000     0.776100000000     0.000000000000     0          
Zr183    Zr     0.848380000000     0.599360000000     0.500000000000     0          
O184     O      0.660000000000     0.595500000000     0.500000000000     0          
O185     O      0.857900000000     0.723900000000     0.500000000000     0          
Zr186    Zr     0.348380000000     0.099360000000     0.000000000000     0          
O187     O      0.160000000000     0.095500000000     0.000000000000     0          
O188     O      0.357900000000     0.223900000000     0.000000000000     0          
Zr189    Zr     0.848380000000     0.400640000000     0.500000000000     0          
O190     O      0.660000000000     0.404500000000     0.500000000000     0          
O191     O      0.857900000000     0.276100000000     0.500000000000     0          
Zr192    Zr     0.348380000000     0.900640000000     0.000000000000     0          
O193     O      0.160000000000     0.904500000000     0.000000000000     0          
O194     O      0.357900000000     0.776100000000     0.000000000000     0          
Zr195    Zr     0.151620000000     0.599360000000     0.500000000000     0          
O196     O      0.340000000000     0.595500000000     0.500000000000     0          
O197     O      0.142100000000     0.723900000000     0.500000000000     0          
Zr198    Zr     0.651620000000     0.099360000000     0.000000000000     0          
O199     O      0.840000000000     0.095500000000     0.000000000000     0          
O200     O      0.642100000000     0.223900000000     0.000000000000     0          
Zr201    Zr     0.000000000000     0.500000000000     0.404480000000     0          
Zr202    Zr     0.500000000000     0.000000000000     0.904480000000     0          
Zr203    Zr     0.000000000000     0.500000000000     0.595520000000     0          
Zr204    Zr     0.500000000000     0.000000000000     0.095520000000     0          
O205     O      0.152300000000     0.500000000000     0.454310000000     0          
O206     O      0.652300000000     0.000000000000     0.954310000000     0          
O207     O      0.847700000000     0.500000000000     0.454310000000     0          
O208     O      0.347700000000     0.000000000000     0.954310000000     0          
O209     O      0.847700000000     0.500000000000     0.545690000000     0          
O210     O      0.347700000000     0.000000000000     0.045690000000     0          
O211     O      0.152300000000     0.500000000000     0.545690000000     0          
O212     O      0.652300000000     0.000000000000     0.045690000000     0          
O213     O      0.000000000000     0.399600000000     0.454100000000     0          
O214     O      0.500000000000     0.899600000000     0.954100000000     0          
O215     O      0.000000000000     0.600400000000     0.454100000000     0          
O216     O      0.500000000000     0.100400000000     0.954100000000     0          
O217     O      0.000000000000     0.399600000000     0.545900000000     0          
O218     O      0.500000000000     0.899600000000     0.045900000000     0          
O219     O      0.000000000000     0.600400000000     0.545900000000     0          
O220     O      0.500000000000     0.100400000000     0.045900000000     0          
H221     H      0.755060000000     0.595500000000     0.500000000000     0          
H222     H      0.755060000000     0.404500000000     0.500000000000     0          
H223     H      0.435060000000     0.595500000000     0.500000000000     0          
H224     H      0.435060000000     0.404500000000     0.500000000000     0          
H225     H      0.737160000000     0.223900000000     0.000000000000     0          
H226     H      0.452960000000     0.223900000000     0.000000000000     0          
H227     H      0.255060000000     0.095500000000     0.000000000000     0          
H228     H      0.935060000000     0.095500000000     0.000000000000     0          
H229     H      0.255060000000     0.904500000000     0.000000000000     0          
H230     H      0.935060000000     0.904500000000     0.000000000000     0          
H231     H      0.737160000000     0.776100000000     0.000000000000     0          
H232     H      0.452960000000     0.776100000000     0.000000000000     0          
H233     H      0.952960000000     0.723900000000     0.500000000000     0          
H234     H      0.237160000000     0.723900000000     0.500000000000     0          
H235     H      0.952960000000     0.276100000000     0.500000000000     0          
H236     H      0.237160000000     0.276100000000     0.500000000000     0          


