data_ZOHXEC

_audit_creation_method RASPA-1.0
_audit_creation_date 2020-11-2
_audit_author_name 'Rocio Bueno-Perez'

_cell_length_a    17.445
_cell_length_b    17.445
_cell_length_c    22.934
_cell_angle_alpha 90
_cell_angle_beta  90
_cell_angle_gamma 90
_cell_volume      6979.46

_symmetry_cell_setting          triclinic
_symmetry_space_group_name_Hall 'P 1'
_symmetry_space_group_name_H-M  'P 1'
_symmetry_Int_Tables_number     1

_symmetry_equiv_pos_as_xyz 'x,y,z'

loop_
_atom_site_label
_atom_site_type_symbol
_atom_site_fract_x
_atom_site_fract_y
_atom_site_fract_z
_atom_site_charge
Zr1      Zr     0.000000000000     0.000000000000     0.106960000000     0          
Zr2      Zr     0.500000000000     0.500000000000     0.606960000000     0          
Zr3      Zr     0.000000000000     0.000000000000     0.893040000000     0          
Zr4      Zr     0.500000000000     0.500000000000     0.393040000000     0          
Zr5      Zr     0.101130000000     0.101130000000     0.000000000000     0          
Zr6      Zr     0.601130000000     0.601130000000     0.500000000000     0          
Zr7      Zr     0.898870000000     0.898870000000     0.000000000000     0          
Zr8      Zr     0.398870000000     0.398870000000     0.500000000000     0          
Zr9      Zr     0.898870000000     0.101130000000     0.000000000000     0          
Zr10     Zr     0.398870000000     0.601130000000     0.500000000000     0          
Zr11     Zr     0.101130000000     0.898870000000     0.000000000000     0          
Zr12     Zr     0.601130000000     0.398870000000     0.500000000000     0          
O13      O      0.099400000000     0.000000000000     0.051600000000     0          
O14      O      0.599400000000     0.500000000000     0.551600000000     0          
O15      O      0.900600000000     0.000000000000     0.051600000000     0          
O16      O      0.400600000000     0.500000000000     0.551600000000     0          
O17      O      0.000000000000     0.099400000000     0.051600000000     0          
O18      O      0.500000000000     0.599400000000     0.551600000000     0          
O19      O      0.000000000000     0.900600000000     0.051600000000     0          
O20      O      0.500000000000     0.400600000000     0.551600000000     0          
O21      O      0.900600000000     0.000000000000     0.948400000000     0          
O22      O      0.400600000000     0.500000000000     0.448400000000     0          
O23      O      0.099400000000     0.000000000000     0.948400000000     0          
O24      O      0.599400000000     0.500000000000     0.448400000000     0          
O25      O      0.000000000000     0.099400000000     0.948400000000     0          
O26      O      0.500000000000     0.599400000000     0.448400000000     0          
O27      O      0.000000000000     0.900600000000     0.948400000000     0          
O28      O      0.500000000000     0.400600000000     0.448400000000     0          
O29      O      0.075520000000     0.075520000000     0.155900000000     0          
O30      O      0.141800000000     0.141800000000     0.088600000000     0          
C31      C      0.125200000000     0.125200000000     0.140500000000     0          
C32      C      0.167300000000     0.167300000000     0.189200000000     0          
C33      C      0.150300000000     0.150300000000     0.244100000000     0          
H34      H      0.105030000000     0.105030000000     0.254080000000     0          
C35      C      0.187200000000     0.187200000000     0.288400000000     0          
H36      H      0.172810000000     0.172810000000     0.335640000000     0          
C37      C      0.217600000000     0.217600000000     0.176700000000     0          
H38      H      0.231100000000     0.231100000000     0.129160000000     0          
C39      C      0.259300000000     0.259300000000     0.221700000000     0          
O40      O      0.575520000000     0.575520000000     0.655900000000     0          
O41      O      0.641800000000     0.641800000000     0.588600000000     0          
C42      C      0.625200000000     0.625200000000     0.640500000000     0          
C43      C      0.667300000000     0.667300000000     0.689200000000     0          
C44      C      0.650300000000     0.650300000000     0.744100000000     0          
H45      H      0.605030000000     0.605030000000     0.754080000000     0          
C46      C      0.687200000000     0.687200000000     0.788400000000     0          
H47      H      0.672810000000     0.672810000000     0.835640000000     0          
C48      C      0.717600000000     0.717600000000     0.676700000000     0          
H49      H      0.731100000000     0.731100000000     0.629160000000     0          
C50      C      0.759300000000     0.759300000000     0.721700000000     0          
O51      O      0.924480000000     0.924480000000     0.155900000000     0          
O52      O      0.858200000000     0.858200000000     0.088600000000     0          
C53      C      0.874800000000     0.874800000000     0.140500000000     0          
C54      C      0.832700000000     0.832700000000     0.189200000000     0          
C55      C      0.849700000000     0.849700000000     0.244100000000     0          
H56      H      0.894970000000     0.894970000000     0.254080000000     0          
C57      C      0.812800000000     0.812800000000     0.288400000000     0          
H58      H      0.827190000000     0.827190000000     0.335640000000     0          
C59      C      0.782400000000     0.782400000000     0.176700000000     0          
H60      H      0.768900000000     0.768900000000     0.129160000000     0          
C61      C      0.740700000000     0.740700000000     0.221700000000     0          
O62      O      0.424480000000     0.424480000000     0.655900000000     0          
O63      O      0.358200000000     0.358200000000     0.588600000000     0          
C64      C      0.374800000000     0.374800000000     0.640500000000     0          
C65      C      0.332700000000     0.332700000000     0.689200000000     0          
C66      C      0.349700000000     0.349700000000     0.744100000000     0          
H67      H      0.394970000000     0.394970000000     0.754080000000     0          
C68      C      0.312800000000     0.312800000000     0.788400000000     0          
H69      H      0.327190000000     0.327190000000     0.835640000000     0          
C70      C      0.282400000000     0.282400000000     0.676700000000     0          
H71      H      0.268900000000     0.268900000000     0.629160000000     0          
C72      C      0.240700000000     0.240700000000     0.721700000000     0          
O73      O      0.924480000000     0.075520000000     0.155900000000     0          
O74      O      0.858200000000     0.141800000000     0.088600000000     0          
C75      C      0.874800000000     0.125200000000     0.140500000000     0          
C76      C      0.832700000000     0.167300000000     0.189200000000     0          
C77      C      0.849700000000     0.150300000000     0.244100000000     0          
H78      H      0.894970000000     0.105030000000     0.254080000000     0          
C79      C      0.812800000000     0.187200000000     0.288400000000     0          
H80      H      0.827190000000     0.172810000000     0.335640000000     0          
C81      C      0.782400000000     0.217600000000     0.176700000000     0          
H82      H      0.768900000000     0.231100000000     0.129160000000     0          
C83      C      0.740700000000     0.259300000000     0.221700000000     0          
O84      O      0.424480000000     0.575520000000     0.655900000000     0          
O85      O      0.358200000000     0.641800000000     0.588600000000     0          
C86      C      0.374800000000     0.625200000000     0.640500000000     0          
C87      C      0.332700000000     0.667300000000     0.689200000000     0          
C88      C      0.349700000000     0.650300000000     0.744100000000     0          
H89      H      0.394970000000     0.605030000000     0.754080000000     0          
C90      C      0.312800000000     0.687200000000     0.788400000000     0          
H91      H      0.327190000000     0.672810000000     0.835640000000     0          
C92      C      0.282400000000     0.717600000000     0.676700000000     0          
H93      H      0.268900000000     0.731100000000     0.629160000000     0          
C94      C      0.240700000000     0.759300000000     0.721700000000     0          
O95      O      0.075520000000     0.924480000000     0.155900000000     0          
O96      O      0.141800000000     0.858200000000     0.088600000000     0          
C97      C      0.125200000000     0.874800000000     0.140500000000     0          
C98      C      0.167300000000     0.832700000000     0.189200000000     0          
C99      C      0.150300000000     0.849700000000     0.244100000000     0          
H100     H      0.105030000000     0.894970000000     0.254080000000     0          
C101     C      0.187200000000     0.812800000000     0.288400000000     0          
H102     H      0.172810000000     0.827190000000     0.335640000000     0          
C103     C      0.217600000000     0.782400000000     0.176700000000     0          
H104     H      0.231100000000     0.768900000000     0.129160000000     0          
C105     C      0.259300000000     0.740700000000     0.221700000000     0          
O106     O      0.575520000000     0.424480000000     0.655900000000     0          
O107     O      0.641800000000     0.358200000000     0.588600000000     0          
C108     C      0.625200000000     0.374800000000     0.640500000000     0          
C109     C      0.667300000000     0.332700000000     0.689200000000     0          
C110     C      0.650300000000     0.349700000000     0.744100000000     0          
H111     H      0.605030000000     0.394970000000     0.754080000000     0          
C112     C      0.687200000000     0.312800000000     0.788400000000     0          
H113     H      0.672810000000     0.327190000000     0.835640000000     0          
C114     C      0.717600000000     0.282400000000     0.676700000000     0          
H115     H      0.731100000000     0.268900000000     0.629160000000     0          
C116     C      0.759300000000     0.240700000000     0.721700000000     0          
O117     O      0.924480000000     0.075520000000     0.844100000000     0          
O118     O      0.858200000000     0.141800000000     0.911400000000     0          
C119     C      0.874800000000     0.125200000000     0.859500000000     0          
C120     C      0.832700000000     0.167300000000     0.810800000000     0          
C121     C      0.849700000000     0.150300000000     0.755900000000     0          
H122     H      0.894970000000     0.105030000000     0.745920000000     0          
C123     C      0.812800000000     0.187200000000     0.711600000000     0          
H124     H      0.827190000000     0.172810000000     0.664360000000     0          
C125     C      0.782400000000     0.217600000000     0.823300000000     0          
H126     H      0.768900000000     0.231100000000     0.870840000000     0          
C127     C      0.740700000000     0.259300000000     0.778300000000     0          
O128     O      0.424480000000     0.575520000000     0.344100000000     0          
O129     O      0.358200000000     0.641800000000     0.411400000000     0          
C130     C      0.374800000000     0.625200000000     0.359500000000     0          
C131     C      0.332700000000     0.667300000000     0.310800000000     0          
C132     C      0.349700000000     0.650300000000     0.255900000000     0          
H133     H      0.394970000000     0.605030000000     0.245920000000     0          
C134     C      0.312800000000     0.687200000000     0.211600000000     0          
H135     H      0.327190000000     0.672810000000     0.164360000000     0          
C136     C      0.282400000000     0.717600000000     0.323300000000     0          
H137     H      0.268900000000     0.731100000000     0.370840000000     0          
C138     C      0.240700000000     0.759300000000     0.278300000000     0          
O139     O      0.075520000000     0.924480000000     0.844100000000     0          
O140     O      0.141800000000     0.858200000000     0.911400000000     0          
C141     C      0.125200000000     0.874800000000     0.859500000000     0          
C142     C      0.167300000000     0.832700000000     0.810800000000     0          
C143     C      0.150300000000     0.849700000000     0.755900000000     0          
H144     H      0.105030000000     0.894970000000     0.745920000000     0          
C145     C      0.187200000000     0.812800000000     0.711600000000     0          
H146     H      0.172810000000     0.827190000000     0.664360000000     0          
C147     C      0.217600000000     0.782400000000     0.823300000000     0          
H148     H      0.231100000000     0.768900000000     0.870840000000     0          
C149     C      0.259300000000     0.740700000000     0.778300000000     0          
O150     O      0.575520000000     0.424480000000     0.344100000000     0          
O151     O      0.641800000000     0.358200000000     0.411400000000     0          
C152     C      0.625200000000     0.374800000000     0.359500000000     0          
C153     C      0.667300000000     0.332700000000     0.310800000000     0          
C154     C      0.650300000000     0.349700000000     0.255900000000     0          
H155     H      0.605030000000     0.394970000000     0.245920000000     0          
C156     C      0.687200000000     0.312800000000     0.211600000000     0          
H157     H      0.672810000000     0.327190000000     0.164360000000     0          
C158     C      0.717600000000     0.282400000000     0.323300000000     0          
H159     H      0.731100000000     0.268900000000     0.370840000000     0          
C160     C      0.759300000000     0.240700000000     0.278300000000     0          
O161     O      0.075520000000     0.075520000000     0.844100000000     0          
O162     O      0.141800000000     0.141800000000     0.911400000000     0          
C163     C      0.125200000000     0.125200000000     0.859500000000     0          
C164     C      0.167300000000     0.167300000000     0.810800000000     0          
C165     C      0.150300000000     0.150300000000     0.755900000000     0          
H166     H      0.105030000000     0.105030000000     0.745920000000     0          
C167     C      0.187200000000     0.187200000000     0.711600000000     0          
H168     H      0.172810000000     0.172810000000     0.664360000000     0          
C169     C      0.217600000000     0.217600000000     0.823300000000     0          
H170     H      0.231100000000     0.231100000000     0.870840000000     0          
C171     C      0.259300000000     0.259300000000     0.778300000000     0          
O172     O      0.575520000000     0.575520000000     0.344100000000     0          
O173     O      0.641800000000     0.641800000000     0.411400000000     0          
C174     C      0.625200000000     0.625200000000     0.359500000000     0          
C175     C      0.667300000000     0.667300000000     0.310800000000     0          
C176     C      0.650300000000     0.650300000000     0.255900000000     0          
H177     H      0.605030000000     0.605030000000     0.245920000000     0          
C178     C      0.687200000000     0.687200000000     0.211600000000     0          
H179     H      0.672810000000     0.672810000000     0.164360000000     0          
C180     C      0.717600000000     0.717600000000     0.323300000000     0          
H181     H      0.731100000000     0.731100000000     0.370840000000     0          
C182     C      0.759300000000     0.759300000000     0.278300000000     0          
O183     O      0.924480000000     0.924480000000     0.844100000000     0          
O184     O      0.858200000000     0.858200000000     0.911400000000     0          
C185     C      0.874800000000     0.874800000000     0.859500000000     0          
C186     C      0.832700000000     0.832700000000     0.810800000000     0          
C187     C      0.849700000000     0.849700000000     0.755900000000     0          
H188     H      0.894970000000     0.894970000000     0.745920000000     0          
C189     C      0.812800000000     0.812800000000     0.711600000000     0          
H190     H      0.827190000000     0.827190000000     0.664360000000     0          
C191     C      0.782400000000     0.782400000000     0.823300000000     0          
H192     H      0.768900000000     0.768900000000     0.870840000000     0          
C193     C      0.740700000000     0.740700000000     0.778300000000     0          
O194     O      0.424480000000     0.424480000000     0.344100000000     0          
O195     O      0.358200000000     0.358200000000     0.411400000000     0          
C196     C      0.374800000000     0.374800000000     0.359500000000     0          
C197     C      0.332700000000     0.332700000000     0.310800000000     0          
C198     C      0.349700000000     0.349700000000     0.255900000000     0          
H199     H      0.394970000000     0.394970000000     0.245920000000     0          
C200     C      0.312800000000     0.312800000000     0.211600000000     0          
H201     H      0.327190000000     0.327190000000     0.164360000000     0          
C202     C      0.282400000000     0.282400000000     0.323300000000     0          
H203     H      0.268900000000     0.268900000000     0.370840000000     0          
C204     C      0.240700000000     0.240700000000     0.278300000000     0          
O205     O      0.098500000000     0.227000000000     0.000000000000     0          
O206     O      0.598500000000     0.727000000000     0.500000000000     0          
O207     O      0.901500000000     0.773000000000     0.000000000000     0          
O208     O      0.401500000000     0.273000000000     0.500000000000     0          
O209     O      0.773000000000     0.098500000000     0.000000000000     0          
O210     O      0.273000000000     0.598500000000     0.500000000000     0          
O211     O      0.227000000000     0.901500000000     0.000000000000     0          
O212     O      0.727000000000     0.401500000000     0.500000000000     0          
O213     O      0.901500000000     0.227000000000     0.000000000000     0          
O214     O      0.401500000000     0.727000000000     0.500000000000     0          
O215     O      0.098500000000     0.773000000000     0.000000000000     0          
O216     O      0.598500000000     0.273000000000     0.500000000000     0          
O217     O      0.227000000000     0.098500000000     0.000000000000     0          
O218     O      0.727000000000     0.598500000000     0.500000000000     0          
O219     O      0.773000000000     0.901500000000     0.000000000000     0          
O220     O      0.273000000000     0.401500000000     0.500000000000     0          
H221     H      0.465130000000     0.727000000000     0.500000000000     0          
H222     H      0.662130000000     0.727000000000     0.500000000000     0          
H223     H      0.465130000000     0.273000000000     0.500000000000     0          
H224     H      0.662130000000     0.273000000000     0.500000000000     0          
H225     H      0.290630000000     0.901500000000     0.000000000000     0          
H226     H      0.790630000000     0.401500000000     0.500000000000     0          
H227     H      0.790630000000     0.598500000000     0.500000000000     0          
H228     H      0.290630000000     0.098500000000     0.000000000000     0          
H229     H      0.162130000000     0.227000000000     0.000000000000     0          
H230     H      0.162130000000     0.773000000000     0.000000000000     0          
H231     H      0.965130000000     0.773000000000     0.000000000000     0          
H232     H      0.965130000000     0.227000000000     0.000000000000     0          
H233     H      0.063630000000     0.099400000000     0.948400000000     0          
H234     H      0.336630000000     0.401500000000     0.500000000000     0          
H235     H      0.336630000000     0.598500000000     0.500000000000     0          
H236     H      0.836630000000     0.901500000000     0.000000000000     0          
H237     H      0.836630000000     0.098500000000     0.000000000000     0          
H238     H      0.210560000000     0.410960000000     0.505900000000     0          
H239     H      0.214580000000     0.616420000000     0.486490000000     0          


