data_ZOHYED

_audit_creation_method RASPA-1.0
_audit_creation_date 2020-11-2
_audit_author_name 'Rocio Bueno-Perez'

_cell_length_a    14.872
_cell_length_b    14.872
_cell_length_c    26.123
_cell_angle_alpha 90
_cell_angle_beta  90
_cell_angle_gamma 90
_cell_volume      5777.79

_symmetry_cell_setting          triclinic
_symmetry_space_group_name_Hall 'P 1'
_symmetry_space_group_name_H-M  'P 1'
_symmetry_Int_Tables_number     1

_symmetry_equiv_pos_as_xyz 'x,y,z'

loop_
_atom_site_label
_atom_site_type_symbol
_atom_site_fract_x
_atom_site_fract_y
_atom_site_fract_z
_atom_site_charge
Zr1      Zr     0.381370000000     0.381370000000     0.000000000000     0          
Zr2      Zr     0.881370000000     0.881370000000     0.500000000000     0          
Zr3      Zr     0.618630000000     0.618630000000     0.000000000000     0          
Zr4      Zr     0.118630000000     0.118630000000     0.500000000000     0          
Zr5      Zr     0.618630000000     0.381370000000     0.000000000000     0          
Zr6      Zr     0.118630000000     0.881370000000     0.500000000000     0          
Zr7      Zr     0.381370000000     0.618630000000     0.000000000000     0          
Zr8      Zr     0.881370000000     0.118630000000     0.500000000000     0          
Zr9      Zr     0.500000000000     0.500000000000     0.094020000000     0          
Zr10     Zr     0.000000000000     0.000000000000     0.594020000000     0          
Zr11     Zr     0.500000000000     0.500000000000     0.905980000000     0          
Zr12     Zr     0.000000000000     0.000000000000     0.405980000000     0          
O13      O      0.500000000000     0.382800000000     0.045280000000     0          
O14      O      0.000000000000     0.882800000000     0.545280000000     0          
O15      O      0.500000000000     0.617200000000     0.045280000000     0          
O16      O      0.000000000000     0.117200000000     0.545280000000     0          
O17      O      0.617200000000     0.500000000000     0.045280000000     0          
O18      O      0.117200000000     0.000000000000     0.545280000000     0          
O19      O      0.382800000000     0.500000000000     0.045280000000     0          
O20      O      0.882800000000     0.000000000000     0.545280000000     0          
O21      O      0.500000000000     0.382800000000     0.954720000000     0          
O22      O      0.000000000000     0.882800000000     0.454720000000     0          
O23      O      0.500000000000     0.617200000000     0.954720000000     0          
O24      O      0.000000000000     0.117200000000     0.454720000000     0          
O25      O      0.382800000000     0.500000000000     0.954720000000     0          
O26      O      0.882800000000     0.000000000000     0.454720000000     0          
O27      O      0.617200000000     0.500000000000     0.954720000000     0          
O28      O      0.117200000000     0.000000000000     0.454720000000     0          
O29      O      0.332920000000     0.332920000000     0.077220000000     0          
O30      O      0.410670000000     0.410670000000     0.136370000000     0          
C31      C      0.353700000000     0.353700000000     0.122900000000     0          
C32      C      0.241200000000     0.241200000000     0.153920000000     0          
H33      H      0.227500000000     0.227500000000     0.119700000000     0          
C34      C      0.305700000000     0.305700000000     0.164800000000     0          
C35      C      0.326700000000     0.326700000000     0.214340000000     0          
H36      H      0.370600000000     0.370600000000     0.221300000000     0          
C37      C      0.282600000000     0.282600000000     0.255180000000     0          
C38      C      0.303000000000     0.303000000000     0.306800000000     0          
H39      H      0.346700000000     0.346700000000     0.314500000000     0          
O40      O      0.832920000000     0.832920000000     0.577220000000     0          
O41      O      0.910670000000     0.910670000000     0.636370000000     0          
C42      C      0.853700000000     0.853700000000     0.622900000000     0          
C43      C      0.741200000000     0.741200000000     0.653920000000     0          
H44      H      0.727500000000     0.727500000000     0.619700000000     0          
C45      C      0.805700000000     0.805700000000     0.664800000000     0          
C46      C      0.826700000000     0.826700000000     0.714340000000     0          
H47      H      0.870600000000     0.870600000000     0.721300000000     0          
C48      C      0.782600000000     0.782600000000     0.755180000000     0          
C49      C      0.803000000000     0.803000000000     0.806800000000     0          
H50      H      0.846700000000     0.846700000000     0.814500000000     0          
O51      O      0.667080000000     0.667080000000     0.077220000000     0          
O52      O      0.589330000000     0.589330000000     0.136370000000     0          
C53      C      0.646300000000     0.646300000000     0.122900000000     0          
C54      C      0.758800000000     0.758800000000     0.153920000000     0          
H55      H      0.772500000000     0.772500000000     0.119700000000     0          
C56      C      0.694300000000     0.694300000000     0.164800000000     0          
C57      C      0.673300000000     0.673300000000     0.214340000000     0          
H58      H      0.629400000000     0.629400000000     0.221300000000     0          
C59      C      0.717400000000     0.717400000000     0.255180000000     0          
C60      C      0.697000000000     0.697000000000     0.306800000000     0          
H61      H      0.653300000000     0.653300000000     0.314500000000     0          
O62      O      0.167080000000     0.167080000000     0.577220000000     0          
O63      O      0.089330000000     0.089330000000     0.636370000000     0          
C64      C      0.146300000000     0.146300000000     0.622900000000     0          
C65      C      0.258800000000     0.258800000000     0.653920000000     0          
H66      H      0.272500000000     0.272500000000     0.619700000000     0          
C67      C      0.194300000000     0.194300000000     0.664800000000     0          
C68      C      0.173300000000     0.173300000000     0.714340000000     0          
H69      H      0.129400000000     0.129400000000     0.721300000000     0          
C70      C      0.217400000000     0.217400000000     0.755180000000     0          
C71      C      0.197000000000     0.197000000000     0.806800000000     0          
H72      H      0.153300000000     0.153300000000     0.814500000000     0          
O73      O      0.667080000000     0.332920000000     0.077220000000     0          
O74      O      0.589330000000     0.410670000000     0.136370000000     0          
C75      C      0.646300000000     0.353700000000     0.122900000000     0          
C76      C      0.758800000000     0.241200000000     0.153920000000     0          
H77      H      0.772500000000     0.227500000000     0.119700000000     0          
C78      C      0.694300000000     0.305700000000     0.164800000000     0          
C79      C      0.673300000000     0.326700000000     0.214340000000     0          
H80      H      0.629400000000     0.370600000000     0.221300000000     0          
C81      C      0.717400000000     0.282600000000     0.255180000000     0          
C82      C      0.697000000000     0.303000000000     0.306800000000     0          
H83      H      0.653300000000     0.346700000000     0.314500000000     0          
O84      O      0.167080000000     0.832920000000     0.577220000000     0          
O85      O      0.089330000000     0.910670000000     0.636370000000     0          
C86      C      0.146300000000     0.853700000000     0.622900000000     0          
C87      C      0.258800000000     0.741200000000     0.653920000000     0          
H88      H      0.272500000000     0.727500000000     0.619700000000     0          
C89      C      0.194300000000     0.805700000000     0.664800000000     0          
C90      C      0.173300000000     0.826700000000     0.714340000000     0          
H91      H      0.129400000000     0.870600000000     0.721300000000     0          
C92      C      0.217400000000     0.782600000000     0.755180000000     0          
C93      C      0.197000000000     0.803000000000     0.806800000000     0          
H94      H      0.153300000000     0.846700000000     0.814500000000     0          
O95      O      0.332920000000     0.667080000000     0.077220000000     0          
O96      O      0.410670000000     0.589330000000     0.136370000000     0          
C97      C      0.353700000000     0.646300000000     0.122900000000     0          
C98      C      0.241200000000     0.758800000000     0.153920000000     0          
H99      H      0.227500000000     0.772500000000     0.119700000000     0          
C100     C      0.305700000000     0.694300000000     0.164800000000     0          
C101     C      0.326700000000     0.673300000000     0.214340000000     0          
H102     H      0.370600000000     0.629400000000     0.221300000000     0          
C103     C      0.282600000000     0.717400000000     0.255180000000     0          
C104     C      0.303000000000     0.697000000000     0.306800000000     0          
H105     H      0.346700000000     0.653300000000     0.314500000000     0          
O106     O      0.832920000000     0.167080000000     0.577220000000     0          
O107     O      0.910670000000     0.089330000000     0.636370000000     0          
C108     C      0.853700000000     0.146300000000     0.622900000000     0          
C109     C      0.741200000000     0.258800000000     0.653920000000     0          
H110     H      0.727500000000     0.272500000000     0.619700000000     0          
C111     C      0.805700000000     0.194300000000     0.664800000000     0          
C112     C      0.826700000000     0.173300000000     0.714340000000     0          
H113     H      0.870600000000     0.129400000000     0.721300000000     0          
C114     C      0.782600000000     0.217400000000     0.755180000000     0          
C115     C      0.803000000000     0.197000000000     0.806800000000     0          
H116     H      0.846700000000     0.153300000000     0.814500000000     0          
O117     O      0.667080000000     0.332920000000     0.922780000000     0          
O118     O      0.589330000000     0.410670000000     0.863630000000     0          
C119     C      0.646300000000     0.353700000000     0.877100000000     0          
C120     C      0.758800000000     0.241200000000     0.846080000000     0          
H121     H      0.772500000000     0.227500000000     0.880300000000     0          
C122     C      0.694300000000     0.305700000000     0.835200000000     0          
C123     C      0.673300000000     0.326700000000     0.785660000000     0          
H124     H      0.629400000000     0.370600000000     0.778700000000     0          
C125     C      0.717400000000     0.282600000000     0.744820000000     0          
C126     C      0.697000000000     0.303000000000     0.693200000000     0          
H127     H      0.653300000000     0.346700000000     0.685500000000     0          
O128     O      0.167080000000     0.832920000000     0.422780000000     0          
O129     O      0.089330000000     0.910670000000     0.363630000000     0          
C130     C      0.146300000000     0.853700000000     0.377100000000     0          
C131     C      0.258800000000     0.741200000000     0.346080000000     0          
H132     H      0.272500000000     0.727500000000     0.380300000000     0          
C133     C      0.194300000000     0.805700000000     0.335200000000     0          
C134     C      0.173300000000     0.826700000000     0.285660000000     0          
H135     H      0.129400000000     0.870600000000     0.278700000000     0          
C136     C      0.217400000000     0.782600000000     0.244820000000     0          
C137     C      0.197000000000     0.803000000000     0.193200000000     0          
H138     H      0.153300000000     0.846700000000     0.185500000000     0          
O139     O      0.332920000000     0.667080000000     0.922780000000     0          
O140     O      0.410670000000     0.589330000000     0.863630000000     0          
C141     C      0.353700000000     0.646300000000     0.877100000000     0          
C142     C      0.241200000000     0.758800000000     0.846080000000     0          
H143     H      0.227500000000     0.772500000000     0.880300000000     0          
C144     C      0.305700000000     0.694300000000     0.835200000000     0          
C145     C      0.326700000000     0.673300000000     0.785660000000     0          
H146     H      0.370600000000     0.629400000000     0.778700000000     0          
C147     C      0.282600000000     0.717400000000     0.744820000000     0          
C148     C      0.303000000000     0.697000000000     0.693200000000     0          
H149     H      0.346700000000     0.653300000000     0.685500000000     0          
O150     O      0.832920000000     0.167080000000     0.422780000000     0          
O151     O      0.910670000000     0.089330000000     0.363630000000     0          
C152     C      0.853700000000     0.146300000000     0.377100000000     0          
C153     C      0.741200000000     0.258800000000     0.346080000000     0          
H154     H      0.727500000000     0.272500000000     0.380300000000     0          
C155     C      0.805700000000     0.194300000000     0.335200000000     0          
C156     C      0.826700000000     0.173300000000     0.285660000000     0          
H157     H      0.870600000000     0.129400000000     0.278700000000     0          
C158     C      0.782600000000     0.217400000000     0.244820000000     0          
C159     C      0.803000000000     0.197000000000     0.193200000000     0          
H160     H      0.846700000000     0.153300000000     0.185500000000     0          
O161     O      0.332920000000     0.332920000000     0.922780000000     0          
O162     O      0.410670000000     0.410670000000     0.863630000000     0          
C163     C      0.353700000000     0.353700000000     0.877100000000     0          
C164     C      0.241200000000     0.241200000000     0.846080000000     0          
H165     H      0.227500000000     0.227500000000     0.880300000000     0          
C166     C      0.305700000000     0.305700000000     0.835200000000     0          
C167     C      0.326700000000     0.326700000000     0.785660000000     0          
H168     H      0.370600000000     0.370600000000     0.778700000000     0          
C169     C      0.282600000000     0.282600000000     0.744820000000     0          
C170     C      0.303000000000     0.303000000000     0.693200000000     0          
H171     H      0.346700000000     0.346700000000     0.685500000000     0          
O172     O      0.832920000000     0.832920000000     0.422780000000     0          
O173     O      0.910670000000     0.910670000000     0.363630000000     0          
C174     C      0.853700000000     0.853700000000     0.377100000000     0          
C175     C      0.741200000000     0.741200000000     0.346080000000     0          
H176     H      0.727500000000     0.727500000000     0.380300000000     0          
C177     C      0.805700000000     0.805700000000     0.335200000000     0          
C178     C      0.826700000000     0.826700000000     0.285660000000     0          
H179     H      0.870600000000     0.870600000000     0.278700000000     0          
C180     C      0.782600000000     0.782600000000     0.244820000000     0          
C181     C      0.803000000000     0.803000000000     0.193200000000     0          
H182     H      0.846700000000     0.846700000000     0.185500000000     0          
O183     O      0.667080000000     0.667080000000     0.922780000000     0          
O184     O      0.589330000000     0.589330000000     0.863630000000     0          
C185     C      0.646300000000     0.646300000000     0.877100000000     0          
C186     C      0.758800000000     0.758800000000     0.846080000000     0          
H187     H      0.772500000000     0.772500000000     0.880300000000     0          
C188     C      0.694300000000     0.694300000000     0.835200000000     0          
C189     C      0.673300000000     0.673300000000     0.785660000000     0          
H190     H      0.629400000000     0.629400000000     0.778700000000     0          
C191     C      0.717400000000     0.717400000000     0.744820000000     0          
C192     C      0.697000000000     0.697000000000     0.693200000000     0          
H193     H      0.653300000000     0.653300000000     0.685500000000     0          
O194     O      0.167080000000     0.167080000000     0.422780000000     0          
O195     O      0.089330000000     0.089330000000     0.363630000000     0          
C196     C      0.146300000000     0.146300000000     0.377100000000     0          
C197     C      0.258800000000     0.258800000000     0.346080000000     0          
H198     H      0.272500000000     0.272500000000     0.380300000000     0          
C199     C      0.194300000000     0.194300000000     0.335200000000     0          
C200     C      0.173300000000     0.173300000000     0.285660000000     0          
H201     H      0.129400000000     0.129400000000     0.278700000000     0          
C202     C      0.217400000000     0.217400000000     0.244820000000     0          
C203     C      0.197000000000     0.197000000000     0.193200000000     0          
H204     H      0.153300000000     0.153300000000     0.185500000000     0          
O205     O      0.405800000000     0.233500000000     0.000000000000     0          
C206     C      0.421500000000     0.047900000000     0.000000000000     0          
N208     N      0.336200000000     0.086000000000     0.000000000000     0          
H209     H      0.330000000000     0.143800000000     0.000000000000     0          
H210     H      0.289000000000     0.051100000000     0.000000000000     0          
O211     O      0.905800000000     0.733500000000     0.500000000000     0          
C212     C      0.921500000000     0.547900000000     0.500000000000     0          
H213     H      0.866300000000     0.578800000000     0.500000000000     0          
O217     O      0.594200000000     0.766500000000     0.000000000000     0          
C218     C      0.578500000000     0.952100000000     0.000000000000     0          
H219     H      0.633700000000     0.921200000000     0.000000000000     0          
O223     O      0.094200000000     0.266500000000     0.500000000000     0          
C224     C      0.078500000000     0.452100000000     0.500000000000     0          
H225     H      0.133700000000     0.421200000000     0.500000000000     0          
O229     O      0.766500000000     0.405800000000     0.000000000000     0          
C230     C      0.952100000000     0.421500000000     0.000000000000     0          
H231     H      0.921200000000     0.366300000000     0.000000000000     0          
N232     N      0.914000000000     0.336200000000     0.000000000000     0          
H233     H      0.856200000000     0.330000000000     0.000000000000     0          
H234     H      0.948900000000     0.289000000000     0.000000000000     0          
O235     O      0.266500000000     0.905800000000     0.500000000000     0          
C236     C      0.452100000000     0.921500000000     0.500000000000     0          
H237     H      0.421200000000     0.866300000000     0.500000000000     0          
N238     N      0.414000000000     0.836200000000     0.500000000000     0          
H239     H      0.356200000000     0.830000000000     0.500000000000     0          
H240     H      0.448900000000     0.789000000000     0.500000000000     0          
O241     O      0.233500000000     0.594200000000     0.000000000000     0          
C242     C      0.047900000000     0.578500000000     0.000000000000     0          
H243     H      0.078800000000     0.633700000000     0.000000000000     0          
O247     O      0.733500000000     0.094200000000     0.500000000000     0          
C248     C      0.547900000000     0.078500000000     0.500000000000     0          
H249     H      0.578800000000     0.133700000000     0.500000000000     0          
O253     O      0.594200000000     0.233500000000     0.000000000000     0          
C254     C      0.578500000000     0.047900000000     0.000000000000     0          
H255     H      0.633700000000     0.078800000000     0.000000000000     0          
O259     O      0.094200000000     0.733500000000     0.500000000000     0          
C260     C      0.078500000000     0.547900000000     0.500000000000     0          
H261     H      0.133700000000     0.578800000000     0.500000000000     0          
O265     O      0.405800000000     0.766500000000     0.000000000000     0          
C266     C      0.421500000000     0.952100000000     0.000000000000     0          
H267     H      0.366300000000     0.921200000000     0.000000000000     0          
O271     O      0.905800000000     0.266500000000     0.500000000000     0          
C272     C      0.921500000000     0.452100000000     0.500000000000     0          
H273     H      0.866300000000     0.421200000000     0.500000000000     0          
N274     N      0.836200000000     0.414000000000     0.500000000000     0          
H275     H      0.830000000000     0.356200000000     0.500000000000     0          
H276     H      0.789000000000     0.448900000000     0.500000000000     0          
O277     O      0.233500000000     0.405800000000     0.000000000000     0          
C278     C      0.047900000000     0.421500000000     0.000000000000     0          
H279     H      0.078800000000     0.366300000000     0.000000000000     0          
O283     O      0.733500000000     0.905800000000     0.500000000000     0          
C284     C      0.547900000000     0.921500000000     0.500000000000     0          
H285     H      0.578800000000     0.866300000000     0.500000000000     0          
O289     O      0.766500000000     0.594200000000     0.000000000000     0          
C290     C      0.952100000000     0.578500000000     0.000000000000     0          
H291     H      0.921200000000     0.633700000000     0.000000000000     0          
O295     O      0.266500000000     0.094200000000     0.500000000000     0          
C296     C      0.452100000000     0.078500000000     0.500000000000     0          
H297     H      0.421200000000     0.133700000000     0.500000000000     0          
C301     C      0.500000000000     0.195600000000     0.000000000000     0          
C302     C      0.500000000000     0.096100000000     0.000000000000     0          
C303     C      0.000000000000     0.695600000000     0.500000000000     0          
C304     C      0.000000000000     0.596100000000     0.500000000000     0          
C305     C      0.500000000000     0.804400000000     0.000000000000     0          
C306     C      0.500000000000     0.903900000000     0.000000000000     0          
C307     C      0.000000000000     0.304400000000     0.500000000000     0          
C308     C      0.000000000000     0.403900000000     0.500000000000     0          
C309     C      0.804400000000     0.500000000000     0.000000000000     0          
C310     C      0.903900000000     0.500000000000     0.000000000000     0          
C311     C      0.304400000000     0.000000000000     0.500000000000     0          
C312     C      0.403900000000     0.000000000000     0.500000000000     0          
C313     C      0.195600000000     0.500000000000     0.000000000000     0          
C314     C      0.096100000000     0.500000000000     0.000000000000     0          
C315     C      0.695600000000     0.000000000000     0.500000000000     0          
C316     C      0.596100000000     0.000000000000     0.500000000000     0          


