data_ZOHYAZ

_audit_creation_method RASPA-1.0
_audit_creation_date 2020-11-2
_audit_author_name 'Rocio Bueno-Perez'

_cell_length_a    14.839
_cell_length_b    14.839
_cell_length_c    26.03
_cell_angle_alpha 90
_cell_angle_beta  90
_cell_angle_gamma 90
_cell_volume      5731.7

_symmetry_cell_setting          triclinic
_symmetry_space_group_name_Hall 'P 1'
_symmetry_space_group_name_H-M  'P 1'
_symmetry_Int_Tables_number     1

_symmetry_equiv_pos_as_xyz 'x,y,z'

loop_
_atom_site_label
_atom_site_type_symbol
_atom_site_fract_x
_atom_site_fract_y
_atom_site_fract_z
_atom_site_charge
O11      O      0.280000000000     0.892000000000     0.961300000000     0          
O12      O      0.780000000000     0.392000000000     0.461300000000     0          
O13      O      0.108000000000     0.280000000000     0.961300000000     0          
O14      O      0.608000000000     0.780000000000     0.461300000000     0          
O25      O      0.280000000000     0.892000000000     0.038700000000     0          
O26      O      0.780000000000     0.392000000000     0.538700000000     0          
O31      O      0.108000000000     0.280000000000     0.038700000000     0          
O32      O      0.608000000000     0.780000000000     0.538700000000     0          
Zr33     Zr     0.500000000000     0.500000000000     0.094580000000     0          
Zr34     Zr     0.000000000000     0.000000000000     0.594580000000     0          
Zr35     Zr     0.500000000000     0.500000000000     0.905420000000     0          
Zr36     Zr     0.000000000000     0.000000000000     0.405420000000     0          
Zr37     Zr     0.381390000000     0.381390000000     0.000000000000     0          
Zr38     Zr     0.881390000000     0.881390000000     0.500000000000     0          
Zr39     Zr     0.618610000000     0.618610000000     0.000000000000     0          
Zr40     Zr     0.118610000000     0.118610000000     0.500000000000     0          
Zr41     Zr     0.618610000000     0.381390000000     0.000000000000     0          
Zr42     Zr     0.118610000000     0.881390000000     0.500000000000     0          
Zr43     Zr     0.381390000000     0.618610000000     0.000000000000     0          
Zr44     Zr     0.881390000000     0.118610000000     0.500000000000     0          
O45      O      0.399200000000     0.500000000000     0.039600000000     0          
O46      O      0.363600000000     0.500000000000     0.052200000000     0          
O47      O      0.899200000000     0.000000000000     0.539600000000     0          
O48      O      0.863600000000     0.000000000000     0.552200000000     0          
O49      O      0.600800000000     0.500000000000     0.039600000000     0          
O50      O      0.636400000000     0.500000000000     0.052200000000     0          
O51      O      0.100800000000     0.000000000000     0.539600000000     0          
O52      O      0.136400000000     0.000000000000     0.552200000000     0          
O53      O      0.500000000000     0.399200000000     0.039600000000     0          
O54      O      0.500000000000     0.363600000000     0.052200000000     0          
O55      O      0.000000000000     0.899200000000     0.539600000000     0          
O56      O      0.000000000000     0.863600000000     0.552200000000     0          
O57      O      0.500000000000     0.600800000000     0.039600000000     0          
O58      O      0.500000000000     0.636400000000     0.052200000000     0          
O59      O      0.000000000000     0.100800000000     0.539600000000     0          
O60      O      0.000000000000     0.136400000000     0.552200000000     0          
O61      O      0.600800000000     0.500000000000     0.960400000000     0          
O62      O      0.636400000000     0.500000000000     0.947800000000     0          
O63      O      0.100800000000     0.000000000000     0.460400000000     0          
O64      O      0.136400000000     0.000000000000     0.447800000000     0          
O65      O      0.399200000000     0.500000000000     0.960400000000     0          
O66      O      0.363600000000     0.500000000000     0.947800000000     0          
O67      O      0.899200000000     0.000000000000     0.460400000000     0          
O68      O      0.863600000000     0.000000000000     0.447800000000     0          
O69      O      0.500000000000     0.399200000000     0.960400000000     0          
O70      O      0.500000000000     0.363600000000     0.947800000000     0          
O71      O      0.000000000000     0.899200000000     0.460400000000     0          
O72      O      0.000000000000     0.863600000000     0.447800000000     0          
O73      O      0.500000000000     0.600800000000     0.960400000000     0          
O74      O      0.500000000000     0.636400000000     0.947800000000     0          
O75      O      0.000000000000     0.100800000000     0.460400000000     0          
O76      O      0.000000000000     0.136400000000     0.447800000000     0          
O77      O      0.332100000000     0.332100000000     0.076510000000     0          
O78      O      0.411500000000     0.411500000000     0.137200000000     0          
C79      C      0.352000000000     0.352000000000     0.122400000000     0          
C80      C      0.305300000000     0.305300000000     0.164400000000     0          
C81      C      0.326300000000     0.326300000000     0.213700000000     0          
H82      H      0.369800000000     0.369800000000     0.220500000000     0          
C83      C      0.241700000000     0.241700000000     0.153600000000     0          
H84      H      0.228400000000     0.228400000000     0.119600000000     0          
C85      C      0.196700000000     0.196700000000     0.192600000000     0          
H86      H      0.153400000000     0.153400000000     0.185000000000     0          
C87      C      0.218200000000     0.218200000000     0.245000000000     0          
O88      O      0.832100000000     0.832100000000     0.576510000000     0          
O89      O      0.911500000000     0.911500000000     0.637200000000     0          
C90      C      0.852000000000     0.852000000000     0.622400000000     0          
C91      C      0.805300000000     0.805300000000     0.664400000000     0          
C92      C      0.826300000000     0.826300000000     0.713700000000     0          
H93      H      0.869800000000     0.869800000000     0.720500000000     0          
C94      C      0.741700000000     0.741700000000     0.653600000000     0          
H95      H      0.728400000000     0.728400000000     0.619600000000     0          
C96      C      0.696700000000     0.696700000000     0.692600000000     0          
H97      H      0.653400000000     0.653400000000     0.685000000000     0          
C98      C      0.718200000000     0.718200000000     0.745000000000     0          
O99      O      0.667900000000     0.667900000000     0.076510000000     0          
O100     O      0.588500000000     0.588500000000     0.137200000000     0          
C101     C      0.648000000000     0.648000000000     0.122400000000     0          
C102     C      0.694700000000     0.694700000000     0.164400000000     0          
C103     C      0.673700000000     0.673700000000     0.213700000000     0          
H104     H      0.630200000000     0.630200000000     0.220500000000     0          
C105     C      0.758300000000     0.758300000000     0.153600000000     0          
H106     H      0.771600000000     0.771600000000     0.119600000000     0          
C107     C      0.803300000000     0.803300000000     0.192600000000     0          
H108     H      0.846600000000     0.846600000000     0.185000000000     0          
C109     C      0.781800000000     0.781800000000     0.245000000000     0          
O110     O      0.167900000000     0.167900000000     0.576510000000     0          
O111     O      0.088500000000     0.088500000000     0.637200000000     0          
C112     C      0.148000000000     0.148000000000     0.622400000000     0          
C113     C      0.194700000000     0.194700000000     0.664400000000     0          
C114     C      0.173700000000     0.173700000000     0.713700000000     0          
H115     H      0.130200000000     0.130200000000     0.720500000000     0          
C116     C      0.258300000000     0.258300000000     0.653600000000     0          
H117     H      0.271600000000     0.271600000000     0.619600000000     0          
C118     C      0.303300000000     0.303300000000     0.692600000000     0          
H119     H      0.346600000000     0.346600000000     0.685000000000     0          
C120     C      0.281800000000     0.281800000000     0.745000000000     0          
O121     O      0.667900000000     0.332100000000     0.076510000000     0          
O122     O      0.588500000000     0.411500000000     0.137200000000     0          
C123     C      0.648000000000     0.352000000000     0.122400000000     0          
C124     C      0.694700000000     0.305300000000     0.164400000000     0          
C125     C      0.673700000000     0.326300000000     0.213700000000     0          
H126     H      0.630200000000     0.369800000000     0.220500000000     0          
C127     C      0.758300000000     0.241700000000     0.153600000000     0          
H128     H      0.771600000000     0.228400000000     0.119600000000     0          
C129     C      0.803300000000     0.196700000000     0.192600000000     0          
H130     H      0.846600000000     0.153400000000     0.185000000000     0          
C131     C      0.781800000000     0.218200000000     0.245000000000     0          
O132     O      0.167900000000     0.832100000000     0.576510000000     0          
O133     O      0.088500000000     0.911500000000     0.637200000000     0          
C134     C      0.148000000000     0.852000000000     0.622400000000     0          
C135     C      0.194700000000     0.805300000000     0.664400000000     0          
C136     C      0.173700000000     0.826300000000     0.713700000000     0          
H137     H      0.130200000000     0.869800000000     0.720500000000     0          
C138     C      0.258300000000     0.741700000000     0.653600000000     0          
H139     H      0.271600000000     0.728400000000     0.619600000000     0          
C140     C      0.303300000000     0.696700000000     0.692600000000     0          
H141     H      0.346600000000     0.653400000000     0.685000000000     0          
C142     C      0.281800000000     0.718200000000     0.745000000000     0          
O143     O      0.332100000000     0.667900000000     0.076510000000     0          
O144     O      0.411500000000     0.588500000000     0.137200000000     0          
C145     C      0.352000000000     0.648000000000     0.122400000000     0          
C146     C      0.305300000000     0.694700000000     0.164400000000     0          
C147     C      0.326300000000     0.673700000000     0.213700000000     0          
H148     H      0.369800000000     0.630200000000     0.220500000000     0          
C149     C      0.241700000000     0.758300000000     0.153600000000     0          
H150     H      0.228400000000     0.771600000000     0.119600000000     0          
C151     C      0.196700000000     0.803300000000     0.192600000000     0          
H152     H      0.153400000000     0.846600000000     0.185000000000     0          
C153     C      0.218200000000     0.781800000000     0.245000000000     0          
O154     O      0.832100000000     0.167900000000     0.576510000000     0          
O155     O      0.911500000000     0.088500000000     0.637200000000     0          
C156     C      0.852000000000     0.148000000000     0.622400000000     0          
C157     C      0.805300000000     0.194700000000     0.664400000000     0          
C158     C      0.826300000000     0.173700000000     0.713700000000     0          
H159     H      0.869800000000     0.130200000000     0.720500000000     0          
C160     C      0.741700000000     0.258300000000     0.653600000000     0          
H161     H      0.728400000000     0.271600000000     0.619600000000     0          
C162     C      0.696700000000     0.303300000000     0.692600000000     0          
H163     H      0.653400000000     0.346600000000     0.685000000000     0          
C164     C      0.718200000000     0.281800000000     0.745000000000     0          
O165     O      0.667900000000     0.332100000000     0.923490000000     0          
O166     O      0.588500000000     0.411500000000     0.862800000000     0          
C167     C      0.648000000000     0.352000000000     0.877600000000     0          
C168     C      0.694700000000     0.305300000000     0.835600000000     0          
C169     C      0.673700000000     0.326300000000     0.786300000000     0          
H170     H      0.630200000000     0.369800000000     0.779500000000     0          
C171     C      0.758300000000     0.241700000000     0.846400000000     0          
H172     H      0.771600000000     0.228400000000     0.880400000000     0          
C173     C      0.803300000000     0.196700000000     0.807400000000     0          
H174     H      0.846600000000     0.153400000000     0.815000000000     0          
C175     C      0.781800000000     0.218200000000     0.755000000000     0          
O176     O      0.167900000000     0.832100000000     0.423490000000     0          
O177     O      0.088500000000     0.911500000000     0.362800000000     0          
C178     C      0.148000000000     0.852000000000     0.377600000000     0          
C179     C      0.194700000000     0.805300000000     0.335600000000     0          
C180     C      0.173700000000     0.826300000000     0.286300000000     0          
H181     H      0.130200000000     0.869800000000     0.279500000000     0          
C182     C      0.258300000000     0.741700000000     0.346400000000     0          
H183     H      0.271600000000     0.728400000000     0.380400000000     0          
C184     C      0.303300000000     0.696700000000     0.307400000000     0          
H185     H      0.346600000000     0.653400000000     0.315000000000     0          
C186     C      0.281800000000     0.718200000000     0.255000000000     0          
O187     O      0.332100000000     0.667900000000     0.923490000000     0          
O188     O      0.411500000000     0.588500000000     0.862800000000     0          
C189     C      0.352000000000     0.648000000000     0.877600000000     0          
C190     C      0.305300000000     0.694700000000     0.835600000000     0          
C191     C      0.326300000000     0.673700000000     0.786300000000     0          
H192     H      0.369800000000     0.630200000000     0.779500000000     0          
C193     C      0.241700000000     0.758300000000     0.846400000000     0          
H194     H      0.228400000000     0.771600000000     0.880400000000     0          
C195     C      0.196700000000     0.803300000000     0.807400000000     0          
H196     H      0.153400000000     0.846600000000     0.815000000000     0          
C197     C      0.218200000000     0.781800000000     0.755000000000     0          
O198     O      0.832100000000     0.167900000000     0.423490000000     0          
O199     O      0.911500000000     0.088500000000     0.362800000000     0          
C200     C      0.852000000000     0.148000000000     0.377600000000     0          
C201     C      0.805300000000     0.194700000000     0.335600000000     0          
C202     C      0.826300000000     0.173700000000     0.286300000000     0          
H203     H      0.869800000000     0.130200000000     0.279500000000     0          
C204     C      0.741700000000     0.258300000000     0.346400000000     0          
H205     H      0.728400000000     0.271600000000     0.380400000000     0          
C206     C      0.696700000000     0.303300000000     0.307400000000     0          
H207     H      0.653400000000     0.346600000000     0.315000000000     0          
C208     C      0.718200000000     0.281800000000     0.255000000000     0          
O209     O      0.332100000000     0.332100000000     0.923490000000     0          
O210     O      0.411500000000     0.411500000000     0.862800000000     0          
C211     C      0.352000000000     0.352000000000     0.877600000000     0          
C212     C      0.305300000000     0.305300000000     0.835600000000     0          
C213     C      0.326300000000     0.326300000000     0.786300000000     0          
H214     H      0.369800000000     0.369800000000     0.779500000000     0          
C215     C      0.241700000000     0.241700000000     0.846400000000     0          
H216     H      0.228400000000     0.228400000000     0.880400000000     0          
C217     C      0.196700000000     0.196700000000     0.807400000000     0          
H218     H      0.153400000000     0.153400000000     0.815000000000     0          
C219     C      0.218200000000     0.218200000000     0.755000000000     0          
O220     O      0.832100000000     0.832100000000     0.423490000000     0          
O221     O      0.911500000000     0.911500000000     0.362800000000     0          
C222     C      0.852000000000     0.852000000000     0.377600000000     0          
C223     C      0.805300000000     0.805300000000     0.335600000000     0          
C224     C      0.826300000000     0.826300000000     0.286300000000     0          
H225     H      0.869800000000     0.869800000000     0.279500000000     0          
C226     C      0.741700000000     0.741700000000     0.346400000000     0          
H227     H      0.728400000000     0.728400000000     0.380400000000     0          
C228     C      0.696700000000     0.696700000000     0.307400000000     0          
H229     H      0.653400000000     0.653400000000     0.315000000000     0          
C230     C      0.718200000000     0.718200000000     0.255000000000     0          
O231     O      0.667900000000     0.667900000000     0.923490000000     0          
O232     O      0.588500000000     0.588500000000     0.862800000000     0          
C233     C      0.648000000000     0.648000000000     0.877600000000     0          
C234     C      0.694700000000     0.694700000000     0.835600000000     0          
C235     C      0.673700000000     0.673700000000     0.786300000000     0          
H236     H      0.630200000000     0.630200000000     0.779500000000     0          
C237     C      0.758300000000     0.758300000000     0.846400000000     0          
H238     H      0.771600000000     0.771600000000     0.880400000000     0          
C239     C      0.803300000000     0.803300000000     0.807400000000     0          
H240     H      0.846600000000     0.846600000000     0.815000000000     0          
C241     C      0.781800000000     0.781800000000     0.755000000000     0          
O242     O      0.167900000000     0.167900000000     0.423490000000     0          
O243     O      0.088500000000     0.088500000000     0.362800000000     0          
C244     C      0.148000000000     0.148000000000     0.377600000000     0          
C245     C      0.194700000000     0.194700000000     0.335600000000     0          
C246     C      0.173700000000     0.173700000000     0.286300000000     0          
H247     H      0.130200000000     0.130200000000     0.279500000000     0          
C248     C      0.258300000000     0.258300000000     0.346400000000     0          
H249     H      0.271600000000     0.271600000000     0.380400000000     0          
C250     C      0.303300000000     0.303300000000     0.307400000000     0          
H251     H      0.346600000000     0.346600000000     0.315000000000     0          
C252     C      0.281800000000     0.281800000000     0.255000000000     0          
O253     O      0.410700000000     0.234500000000     0.000000000000     0          
C254     C      0.420200000000     0.046100000000     0.000000000000     0          
O256     O      0.910700000000     0.734500000000     0.500000000000     0          
C257     C      0.920200000000     0.546100000000     0.500000000000     0          
O259     O      0.589300000000     0.765500000000     0.000000000000     0          
C260     C      0.579800000000     0.953900000000     0.000000000000     0          
O262     O      0.089300000000     0.265500000000     0.500000000000     0          
C263     C      0.079800000000     0.453900000000     0.500000000000     0          
O265     O      0.765500000000     0.410700000000     0.000000000000     0          
C266     C      0.953900000000     0.420200000000     0.000000000000     0          
O268     O      0.265500000000     0.910700000000     0.500000000000     0          
C269     C      0.453900000000     0.920200000000     0.500000000000     0          
O271     O      0.234500000000     0.589300000000     0.000000000000     0          
C272     C      0.046100000000     0.579800000000     0.000000000000     0          
O274     O      0.734500000000     0.089300000000     0.500000000000     0          
C275     C      0.546100000000     0.079800000000     0.500000000000     0          
O277     O      0.589300000000     0.234500000000     0.000000000000     0          
C278     C      0.579800000000     0.046100000000     0.000000000000     0          
O280     O      0.089300000000     0.734500000000     0.500000000000     0          
C281     C      0.079800000000     0.546100000000     0.500000000000     0          
O283     O      0.410700000000     0.765500000000     0.000000000000     0          
C284     C      0.420200000000     0.953900000000     0.000000000000     0          
N285     N      0.330100000000     0.914000000000     0.000000000000     0          
O286     O      0.910700000000     0.265500000000     0.500000000000     0          
C287     C      0.920200000000     0.453900000000     0.500000000000     0          
N288     N      0.830100000000     0.414000000000     0.500000000000     0          
O289     O      0.234500000000     0.410700000000     0.000000000000     0          
C290     C      0.046100000000     0.420200000000     0.000000000000     0          
N291     N      0.086000000000     0.330100000000     0.000000000000     0          
O292     O      0.734500000000     0.910700000000     0.500000000000     0          
C293     C      0.546100000000     0.920200000000     0.500000000000     0          
N294     N      0.586000000000     0.830100000000     0.500000000000     0          
O295     O      0.765500000000     0.589300000000     0.000000000000     0          
C296     C      0.953900000000     0.579800000000     0.000000000000     0          
O298     O      0.265500000000     0.089300000000     0.500000000000     0          
C299     C      0.453900000000     0.079800000000     0.500000000000     0          
C301     C      0.500000000000     0.192000000000     0.000000000000     0          
C302     C      0.500000000000     0.094400000000     0.000000000000     0          
C303     C      0.000000000000     0.692000000000     0.500000000000     0          
C304     C      0.000000000000     0.594400000000     0.500000000000     0          
C305     C      0.500000000000     0.808000000000     0.000000000000     0          
C306     C      0.500000000000     0.905600000000     0.000000000000     0          
C307     C      0.000000000000     0.308000000000     0.500000000000     0          
C308     C      0.000000000000     0.405600000000     0.500000000000     0          
C309     C      0.808000000000     0.500000000000     0.000000000000     0          
C310     C      0.905600000000     0.500000000000     0.000000000000     0          
C311     C      0.308000000000     0.000000000000     0.500000000000     0          
C312     C      0.405600000000     0.000000000000     0.500000000000     0          
C313     C      0.192000000000     0.500000000000     0.000000000000     0          
C314     C      0.094400000000     0.500000000000     0.000000000000     0          
C315     C      0.692000000000     0.000000000000     0.500000000000     0          
C316     C      0.594400000000     0.000000000000     0.500000000000     0          


