data_ZONBAH

_audit_creation_method RASPA-1.0
_audit_creation_date 2020-4-3
_audit_author_name 'Rocio Bueno-Perez'

_cell_length_a    24.4243
_cell_length_b    11.1795
_cell_length_c    7.8022
_cell_angle_alpha 90
_cell_angle_beta  103.861
_cell_angle_gamma 90
_cell_volume      2068.36

_symmetry_cell_setting          monoclinic
_symmetry_space_group_name_Hall 'P 1'
_symmetry_space_group_name_H-M  'P 1'
_symmetry_Int_Tables_number     1

_symmetry_equiv_pos_as_xyz 'x,y,z'

loop_
_atom_site_label
_atom_site_type_symbol
_atom_site_fract_x
_atom_site_fract_y
_atom_site_fract_z
_atom_site_charge
Zr1      Zr     0.944500000000     0.983000000000     0.333500000000     0          
O2       O      0.956800000000     0.186400000000     0.277900000000     0          
O3       O      0.885200000000     0.913500000000     0.484900000000     0          
O4       O      0.969800000000     0.020700000000     0.605600000000     0          
O5       O      0.963700000000     0.799600000000     0.342000000000     0          
O6       O      0.864000000000     0.929600000000     0.746300000000     0          
C7       C      0.849000000000     0.900500000000     0.588000000000     0          
C8       C      0.801900000000     0.827600000000     0.523200000000     0          
C9       C      0.785900000000     0.760600000000     0.375400000000     0          
C10      C      0.761300000000     0.817800000000     0.640900000000     0          
C11      C      0.046500000000     0.589100000000     0.218500000000     0          
C12      C      0.043500000000     0.459300000000     0.201900000000     0          
H13      H      0.809910000000     0.767380000000     0.267190000000     0          
H14      H      0.766450000000     0.878290000000     0.761350000000     0          
H15      H      0.086220000000     0.638440000000     0.206160000000     0          
H16      H      0.076670000000     0.408810000000     0.149640000000     0          
C17      C      0.000000000000     0.248800000000     0.250000000000     0          
C18      C      0.000000000000     0.783400000000     0.250000000000     0          
C19      C      0.000000000000     0.654000000000     0.250000000000     0          
C20      C      0.000000000000     0.396800000000     0.250000000000     0          
Zr1      Zr     0.055500000000     0.983000000000     0.166500000000     0          
O2       O      0.043200000000     0.186400000000     0.222100000000     0          
O3       O      0.114800000000     0.913500000000     0.015100000000     0          
O4       O      0.030200000000     0.020700000000     0.894400000000     0          
O5       O      0.036300000000     0.799600000000     0.158000000000     0          
O6       O      0.136000000000     0.929600000000     0.753700000000     0          
C7       C      0.151000000000     0.900500000000     0.912000000000     0          
C8       C      0.198100000000     0.827600000000     0.976800000000     0          
C9       C      0.214100000000     0.760600000000     0.124600000000     0          
C10      C      0.238700000000     0.817800000000     0.859100000000     0          
C11      C      0.953500000000     0.589100000000     0.281500000000     0          
C12      C      0.956500000000     0.459300000000     0.298100000000     0          
H13      H      0.190090000000     0.767380000000     0.232810000000     0          
H14      H      0.233550000000     0.878290000000     0.738650000000     0          
H15      H      0.913780000000     0.638440000000     0.293840000000     0          
H16      H      0.923330000000     0.408810000000     0.350360000000     0          
Zr1      Zr     0.055500000000     0.017000000000     0.666500000000     0          
O2       O      0.043200000000     0.813600000000     0.722100000000     0          
O3       O      0.114800000000     0.086500000000     0.515100000000     0          
O4       O      0.030200000000     0.979300000000     0.394400000000     0          
O5       O      0.036300000000     0.200400000000     0.658000000000     0          
O6       O      0.136000000000     0.070400000000     0.253700000000     0          
C7       C      0.151000000000     0.099500000000     0.412000000000     0          
C8       C      0.198100000000     0.172400000000     0.476800000000     0          
C9       C      0.214100000000     0.239400000000     0.624600000000     0          
C10      C      0.238700000000     0.182200000000     0.359100000000     0          
C11      C      0.953500000000     0.410900000000     0.781500000000     0          
C12      C      0.956500000000     0.540700000000     0.798100000000     0          
H13      H      0.190090000000     0.232620000000     0.732810000000     0          
H14      H      0.233550000000     0.121710000000     0.238650000000     0          
H15      H      0.913780000000     0.361560000000     0.793840000000     0          
H16      H      0.923330000000     0.591190000000     0.850360000000     0          
C17      C      0.000000000000     0.751200000000     0.750000000000     0          
C18      C      0.000000000000     0.216600000000     0.750000000000     0          
C19      C      0.000000000000     0.346000000000     0.750000000000     0          
C20      C      0.000000000000     0.603200000000     0.750000000000     0          
Zr1      Zr     0.944500000000     0.017000000000     0.833500000000     0          
O2       O      0.956800000000     0.813600000000     0.777900000000     0          
O3       O      0.885200000000     0.086500000000     0.984900000000     0          
O4       O      0.969800000000     0.979300000000     0.105600000000     0          
O5       O      0.963700000000     0.200400000000     0.842000000000     0          
O6       O      0.864000000000     0.070400000000     0.246300000000     0          
C7       C      0.849000000000     0.099500000000     0.088000000000     0          
C8       C      0.801900000000     0.172400000000     0.023200000000     0          
C9       C      0.785900000000     0.239400000000     0.875400000000     0          
C10      C      0.761300000000     0.182200000000     0.140900000000     0          
C11      C      0.046500000000     0.410900000000     0.718500000000     0          
C12      C      0.043500000000     0.540700000000     0.701900000000     0          
H13      H      0.809910000000     0.232620000000     0.767190000000     0          
H14      H      0.766450000000     0.121710000000     0.261350000000     0          
H15      H      0.086220000000     0.361560000000     0.706160000000     0          
H16      H      0.076670000000     0.591190000000     0.649640000000     0          
Zr1      Zr     0.444500000000     0.483000000000     0.333500000000     0          
O2       O      0.456800000000     0.686400000000     0.277900000000     0          
O3       O      0.385200000000     0.413500000000     0.484900000000     0          
O4       O      0.469800000000     0.520700000000     0.605600000000     0          
O5       O      0.463700000000     0.299600000000     0.342000000000     0          
O6       O      0.364000000000     0.429600000000     0.746300000000     0          
C7       C      0.349000000000     0.400500000000     0.588000000000     0          
C8       C      0.301900000000     0.327600000000     0.523200000000     0          
C9       C      0.285900000000     0.260600000000     0.375400000000     0          
C10      C      0.261300000000     0.317800000000     0.640900000000     0          
C11      C      0.546500000000     0.089100000000     0.218500000000     0          
C12      C      0.543500000000     0.959300000000     0.201900000000     0          
H13      H      0.309910000000     0.267380000000     0.267190000000     0          
H14      H      0.266450000000     0.378290000000     0.761350000000     0          
H15      H      0.586220000000     0.138440000000     0.206160000000     0          
H16      H      0.576670000000     0.908810000000     0.149640000000     0          
C17      C      0.500000000000     0.748800000000     0.250000000000     0          
C18      C      0.500000000000     0.283400000000     0.250000000000     0          
C19      C      0.500000000000     0.154000000000     0.250000000000     0          
C20      C      0.500000000000     0.896800000000     0.250000000000     0          
Zr1      Zr     0.555500000000     0.483000000000     0.166500000000     0          
O2       O      0.543200000000     0.686400000000     0.222100000000     0          
O3       O      0.614800000000     0.413500000000     0.015100000000     0          
O4       O      0.530200000000     0.520700000000     0.894400000000     0          
O5       O      0.536300000000     0.299600000000     0.158000000000     0          
O6       O      0.636000000000     0.429600000000     0.753700000000     0          
C7       C      0.651000000000     0.400500000000     0.912000000000     0          
C8       C      0.698100000000     0.327600000000     0.976800000000     0          
C9       C      0.714100000000     0.260600000000     0.124600000000     0          
C10      C      0.738700000000     0.317800000000     0.859100000000     0          
C11      C      0.453500000000     0.089100000000     0.281500000000     0          
C12      C      0.456500000000     0.959300000000     0.298100000000     0          
H13      H      0.690090000000     0.267380000000     0.232810000000     0          
H14      H      0.733550000000     0.378290000000     0.738650000000     0          
H15      H      0.413780000000     0.138440000000     0.293840000000     0          
H16      H      0.423330000000     0.908810000000     0.350360000000     0          
Zr1      Zr     0.555500000000     0.517000000000     0.666500000000     0          
O2       O      0.543200000000     0.313600000000     0.722100000000     0          
O3       O      0.614800000000     0.586500000000     0.515100000000     0          
O4       O      0.530200000000     0.479300000000     0.394400000000     0          
O5       O      0.536300000000     0.700400000000     0.658000000000     0          
O6       O      0.636000000000     0.570400000000     0.253700000000     0          
C7       C      0.651000000000     0.599500000000     0.412000000000     0          
C8       C      0.698100000000     0.672400000000     0.476800000000     0          
C9       C      0.714100000000     0.739400000000     0.624600000000     0          
C10      C      0.738700000000     0.682200000000     0.359100000000     0          
C11      C      0.453500000000     0.910900000000     0.781500000000     0          
C12      C      0.456500000000     0.040700000000     0.798100000000     0          
H13      H      0.690090000000     0.732620000000     0.732810000000     0          
H14      H      0.733550000000     0.621710000000     0.238650000000     0          
H15      H      0.413780000000     0.861560000000     0.793840000000     0          
H16      H      0.423330000000     0.091190000000     0.850360000000     0          
C17      C      0.500000000000     0.251200000000     0.750000000000     0          
C18      C      0.500000000000     0.716600000000     0.750000000000     0          
C19      C      0.500000000000     0.846000000000     0.750000000000     0          
C20      C      0.500000000000     0.103200000000     0.750000000000     0          
Zr1      Zr     0.444500000000     0.517000000000     0.833500000000     0          
O2       O      0.456800000000     0.313600000000     0.777900000000     0          
O3       O      0.385200000000     0.586500000000     0.984900000000     0          
O4       O      0.469800000000     0.479300000000     0.105600000000     0          
O5       O      0.463700000000     0.700400000000     0.842000000000     0          
O6       O      0.364000000000     0.570400000000     0.246300000000     0          
C7       C      0.349000000000     0.599500000000     0.088000000000     0          
C8       C      0.301900000000     0.672400000000     0.023200000000     0          
C9       C      0.285900000000     0.739400000000     0.875400000000     0          
C10      C      0.261300000000     0.682200000000     0.140900000000     0          
C11      C      0.546500000000     0.910900000000     0.718500000000     0          
C12      C      0.543500000000     0.040700000000     0.701900000000     0          
H13      H      0.309910000000     0.732620000000     0.767190000000     0          
H14      H      0.266450000000     0.621710000000     0.261350000000     0          
H15      H      0.586220000000     0.861560000000     0.706160000000     0          
H16      H      0.576670000000     0.091190000000     0.649640000000     0          


