# generated using pymatgen
data_Zr3H36C53O16
_symmetry_space_group_name_H-M   'P 1'
_cell_length_a   17.84200000
_cell_length_b   20.92992268
_cell_length_c   33.69300000
_cell_angle_alpha   90.00000000
_cell_angle_beta   90.00000000
_cell_angle_gamma   115.22866146
_symmetry_Int_Tables_number   1
_chemical_formula_structural   Zr3H36C53O16
_chemical_formula_sum   'Zr12 H144 C212 O64'
_cell_volume   11381.88310535
_cell_formula_units_Z   4
loop_
 _symmetry_equiv_pos_site_id
 _symmetry_equiv_pos_as_xyz
  1  'x, y, z'
loop_
 _atom_site_type_symbol
 _atom_site_label
 _atom_site_symmetry_multiplicity
 _atom_site_fract_x
 _atom_site_fract_y
 _atom_site_fract_z
 _atom_site_occupancy
  C  C0  1  0.01031000  0.18562000  0.56772000  1
  C  C1  1  0.02834000  0.24548000  0.59573000  1
  C  C2  1  0.98029000  0.23798000  0.62880000  1
  C  C3  1  0.99976000  0.29212000  0.65550000  1
  C  C4  1  0.06978000  0.35676000  0.64994000  1
  C  C5  1  0.11737000  0.36434000  0.61587000  1
  C  C6  1  0.09680000  0.30920000  0.58905000  1
  C  C7  1  0.09314000  0.41568000  0.67888000  1
  C  C8  1  0.03237000  0.42374000  0.70185000  1
  C  C9  1  0.05567000  0.47894000  0.72837000  1
  C  C10  1  0.00000000  0.50000000  0.75489000  1
  C  C11  1  0.06393000  0.56226000  0.77740000  1
  C  C12  1  0.05028000  0.60356000  0.80596000  1
  C  C13  1  0.11903000  0.66326000  0.82062000  1
  C  C14  1  0.19744000  0.67848000  0.80588000  1
  C  C15  1  0.21134000  0.63748000  0.77712000  1
  C  C16  1  0.14327000  0.57854000  0.76321000  1
  C  C17  1  0.13877000  0.52634000  0.73281000  1
  C  C18  1  0.19845000  0.51890000  0.70974000  1
  C  C19  1  0.17489000  0.46338000  0.68332000  1
  C  C20  1  0.10669000  0.71078000  0.85003000  1
  C  C21  1  0.04497000  0.68534000  0.87917000  1
  C  C22  1  0.03575000  0.73070000  0.90633000  1
  C  C23  1  0.08686000  0.80272000  0.90481000  1
  C  C24  1  0.14708000  0.82856000  0.87644000  1
  C  C25  1  0.15814000  0.78368000  0.84905000  1
  C  C26  1  0.07332000  0.85284000  0.93282000  1
  C  C27  1  0.98969000  0.81438000  0.56772000  1
  C  C28  1  0.97166000  0.75452000  0.59573000  1
  C  C29  1  0.01971000  0.76202000  0.62880000  1
  C  C30  1  0.00024000  0.70788000  0.65550000  1
  C  C31  1  0.93022000  0.64324000  0.64994000  1
  C  C32  1  0.88263000  0.63566000  0.61587000  1
  C  C33  1  0.90320000  0.69080000  0.58905000  1
  C  C34  1  0.90686000  0.58432000  0.67888000  1
  C  C35  1  0.96763000  0.57626000  0.70185000  1
  C  C36  1  0.94433000  0.52106000  0.72837000  1
  C  C37  1  0.93607000  0.43774000  0.77740000  1
  C  C38  1  0.94972000  0.39644000  0.80596000  1
  C  C39  1  0.88097000  0.33674000  0.82062000  1
  C  C40  1  0.80256000  0.32152000  0.80588000  1
  C  C41  1  0.78866000  0.36252000  0.77712000  1
  C  C42  1  0.85673000  0.42146000  0.76321000  1
  C  C43  1  0.86123000  0.47366000  0.73281000  1
  C  C44  1  0.80155000  0.48110000  0.70974000  1
  C  C45  1  0.82511000  0.53662000  0.68332000  1
  C  C46  1  0.89331000  0.28922000  0.85003000  1
  C  C47  1  0.95503000  0.31466000  0.87917000  1
  C  C48  1  0.96425000  0.26930000  0.90633000  1
  C  C49  1  0.91314000  0.19728000  0.90481000  1
  C  C50  1  0.85292000  0.17144000  0.87644000  1
  C  C51  1  0.84186000  0.21632000  0.84905000  1
  C  C52  1  0.92668000  0.14716000  0.93282000  1
  C  C53  1  0.82469000  0.81438000  0.93228000  1
  C  C54  1  0.78286000  0.75452000  0.90427000  1
  C  C55  1  0.74231000  0.76202000  0.87120000  1
  C  C56  1  0.70764000  0.70788000  0.84450000  1
  C  C57  1  0.71302000  0.64324000  0.85006000  1
  C  C58  1  0.75303000  0.63566000  0.88413000  1
  C  C59  1  0.78760000  0.69080000  0.91095000  1
  C  C60  1  0.67746000  0.58432000  0.82112000  1
  C  C61  1  0.60863000  0.57626000  0.79815000  1
  C  C62  1  0.57673000  0.52106000  0.77163000  1
  C  C63  1  0.50000000  0.50000000  0.74511000  1
  C  C64  1  0.50167000  0.43774000  0.72260000  1
  C  C65  1  0.44672000  0.39644000  0.69404000  1
  C  C66  1  0.45577000  0.33674000  0.67938000  1
  C  C67  1  0.51896000  0.32152000  0.69412000  1
  C  C68  1  0.57386000  0.36252000  0.72288000  1
  C  C69  1  0.56473000  0.42146000  0.73679000  1
  C  C70  1  0.61243000  0.47366000  0.76719000  1
  C  C71  1  0.67955000  0.48110000  0.79026000  1
  C  C72  1  0.71151000  0.53662000  0.81668000  1
  C  C73  1  0.39591000  0.28922000  0.64997000  1
  C  C74  1  0.35963000  0.31466000  0.62083000  1
  C  C75  1  0.30505000  0.26930000  0.59367000  1
  C  C76  1  0.28414000  0.19728000  0.59519000  1
  C  C77  1  0.31852000  0.17144000  0.62356000  1
  C  C78  1  0.37446000  0.21632000  0.65095000  1
  C  C79  1  0.22048000  0.14716000  0.56718000  1
  C  C80  1  0.17531000  0.18562000  0.93228000  1
  C  C81  1  0.21714000  0.24548000  0.90427000  1
  C  C82  1  0.25769000  0.23798000  0.87120000  1
  C  C83  1  0.29236000  0.29212000  0.84450000  1
  C  C84  1  0.28698000  0.35676000  0.85006000  1
  C  C85  1  0.24697000  0.36434000  0.88413000  1
  C  C86  1  0.21240000  0.30920000  0.91095000  1
  C  C87  1  0.32254000  0.41568000  0.82112000  1
  C  C88  1  0.39137000  0.42374000  0.79815000  1
  C  C89  1  0.42327000  0.47894000  0.77163000  1
  C  C90  1  0.49833000  0.56226000  0.72260000  1
  C  C91  1  0.55328000  0.60356000  0.69404000  1
  C  C92  1  0.54423000  0.66326000  0.67938000  1
  C  C93  1  0.48104000  0.67848000  0.69412000  1
  C  C94  1  0.42614000  0.63748000  0.72288000  1
  C  C95  1  0.43527000  0.57854000  0.73679000  1
  C  C96  1  0.38757000  0.52634000  0.76719000  1
  C  C97  1  0.32045000  0.51890000  0.79026000  1
  C  C98  1  0.28849000  0.46338000  0.81668000  1
  C  C99  1  0.60409000  0.71078000  0.64997000  1
  C  C100  1  0.64037000  0.68534000  0.62083000  1
  C  C101  1  0.69495000  0.73070000  0.59367000  1
  C  C102  1  0.71586000  0.80272000  0.59519000  1
  C  C103  1  0.68148000  0.82856000  0.62356000  1
  C  C104  1  0.62554000  0.78368000  0.65095000  1
  C  C105  1  0.77952000  0.85284000  0.56718000  1
  C  C106  1  0.98969000  0.81438000  0.43228000  1
  C  C107  1  0.97166000  0.75452000  0.40427000  1
  C  C108  1  0.01971000  0.76202000  0.37120000  1
  C  C109  1  0.00024000  0.70788000  0.34450000  1
  C  C110  1  0.93022000  0.64324000  0.35006000  1
  C  C111  1  0.88263000  0.63566000  0.38413000  1
  C  C112  1  0.90320000  0.69080000  0.41095000  1
  C  C113  1  0.90686000  0.58432000  0.32112000  1
  C  C114  1  0.96763000  0.57626000  0.29815000  1
  C  C115  1  0.94433000  0.52106000  0.27163000  1
  C  C116  1  0.00000000  0.50000000  0.24511000  1
  C  C117  1  0.93607000  0.43774000  0.22260000  1
  C  C118  1  0.94972000  0.39644000  0.19404000  1
  C  C119  1  0.88097000  0.33674000  0.17938000  1
  C  C120  1  0.80256000  0.32152000  0.19412000  1
  C  C121  1  0.78866000  0.36252000  0.22288000  1
  C  C122  1  0.85673000  0.42146000  0.23679000  1
  C  C123  1  0.86123000  0.47366000  0.26719000  1
  C  C124  1  0.80155000  0.48110000  0.29026000  1
  C  C125  1  0.82511000  0.53662000  0.31668000  1
  C  C126  1  0.89331000  0.28922000  0.14997000  1
  C  C127  1  0.95503000  0.31466000  0.12083000  1
  C  C128  1  0.96425000  0.26930000  0.09367000  1
  C  C129  1  0.91314000  0.19728000  0.09519000  1
  C  C130  1  0.85292000  0.17144000  0.12356000  1
  C  C131  1  0.84186000  0.21632000  0.15095000  1
  C  C132  1  0.92668000  0.14716000  0.06718000  1
  C  C133  1  0.01031000  0.18562000  0.43228000  1
  C  C134  1  0.02834000  0.24548000  0.40427000  1
  C  C135  1  0.98029000  0.23798000  0.37120000  1
  C  C136  1  0.99976000  0.29212000  0.34450000  1
  C  C137  1  0.06978000  0.35676000  0.35006000  1
  C  C138  1  0.11737000  0.36434000  0.38413000  1
  C  C139  1  0.09680000  0.30920000  0.41095000  1
  C  C140  1  0.09314000  0.41568000  0.32112000  1
  C  C141  1  0.03237000  0.42374000  0.29815000  1
  C  C142  1  0.05567000  0.47894000  0.27163000  1
  C  C143  1  0.06393000  0.56226000  0.22260000  1
  C  C144  1  0.05028000  0.60356000  0.19404000  1
  C  C145  1  0.11903000  0.66326000  0.17938000  1
  C  C146  1  0.19744000  0.67848000  0.19412000  1
  C  C147  1  0.21134000  0.63748000  0.22288000  1
  C  C148  1  0.14327000  0.57854000  0.23679000  1
  C  C149  1  0.13877000  0.52634000  0.26719000  1
  C  C150  1  0.19845000  0.51890000  0.29026000  1
  C  C151  1  0.17489000  0.46338000  0.31668000  1
  C  C152  1  0.10669000  0.71078000  0.14997000  1
  C  C153  1  0.04497000  0.68534000  0.12083000  1
  C  C154  1  0.03575000  0.73070000  0.09367000  1
  C  C155  1  0.08686000  0.80272000  0.09519000  1
  C  C156  1  0.14708000  0.82856000  0.12356000  1
  C  C157  1  0.15814000  0.78368000  0.15095000  1
  C  C158  1  0.07332000  0.85284000  0.06718000  1
  C  C159  1  0.17531000  0.18562000  0.06772000  1
  C  C160  1  0.21714000  0.24548000  0.09573000  1
  C  C161  1  0.25769000  0.23798000  0.12880000  1
  C  C162  1  0.29236000  0.29212000  0.15550000  1
  C  C163  1  0.28698000  0.35676000  0.14994000  1
  C  C164  1  0.24697000  0.36434000  0.11587000  1
  C  C165  1  0.21240000  0.30920000  0.08905000  1
  C  C166  1  0.32254000  0.41568000  0.17888000  1
  C  C167  1  0.39137000  0.42374000  0.20185000  1
  C  C168  1  0.42327000  0.47894000  0.22837000  1
  C  C169  1  0.50000000  0.50000000  0.25489000  1
  C  C170  1  0.49833000  0.56226000  0.27740000  1
  C  C171  1  0.55328000  0.60356000  0.30596000  1
  C  C172  1  0.54423000  0.66326000  0.32062000  1
  C  C173  1  0.48104000  0.67848000  0.30588000  1
  C  C174  1  0.42614000  0.63748000  0.27712000  1
  C  C175  1  0.43527000  0.57854000  0.26321000  1
  C  C176  1  0.38757000  0.52634000  0.23281000  1
  C  C177  1  0.32045000  0.51890000  0.20974000  1
  C  C178  1  0.28849000  0.46338000  0.18332000  1
  C  C179  1  0.60409000  0.71078000  0.35003000  1
  C  C180  1  0.64037000  0.68534000  0.37917000  1
  C  C181  1  0.69495000  0.73070000  0.40633000  1
  C  C182  1  0.71586000  0.80272000  0.40481000  1
  C  C183  1  0.68148000  0.82856000  0.37644000  1
  C  C184  1  0.62554000  0.78368000  0.34905000  1
  C  C185  1  0.77952000  0.85284000  0.43282000  1
  C  C186  1  0.82469000  0.81438000  0.06772000  1
  C  C187  1  0.78286000  0.75452000  0.09573000  1
  C  C188  1  0.74231000  0.76202000  0.12880000  1
  C  C189  1  0.70764000  0.70788000  0.15550000  1
  C  C190  1  0.71302000  0.64324000  0.14994000  1
  C  C191  1  0.75303000  0.63566000  0.11587000  1
  C  C192  1  0.78760000  0.69080000  0.08905000  1
  C  C193  1  0.67746000  0.58432000  0.17888000  1
  C  C194  1  0.60863000  0.57626000  0.20185000  1
  C  C195  1  0.57673000  0.52106000  0.22837000  1
  C  C196  1  0.50167000  0.43774000  0.27740000  1
  C  C197  1  0.44672000  0.39644000  0.30596000  1
  C  C198  1  0.45577000  0.33674000  0.32062000  1
  C  C199  1  0.51896000  0.32152000  0.30588000  1
  C  C200  1  0.57386000  0.36252000  0.27712000  1
  C  C201  1  0.56473000  0.42146000  0.26321000  1
  C  C202  1  0.61243000  0.47366000  0.23281000  1
  C  C203  1  0.67955000  0.48110000  0.20974000  1
  C  C204  1  0.71151000  0.53662000  0.18332000  1
  C  C205  1  0.39591000  0.28922000  0.35003000  1
  C  C206  1  0.35963000  0.31466000  0.37917000  1
  C  C207  1  0.30505000  0.26930000  0.40633000  1
  C  C208  1  0.28414000  0.19728000  0.40481000  1
  C  C209  1  0.31852000  0.17144000  0.37644000  1
  C  C210  1  0.37446000  0.21632000  0.34905000  1
  C  C211  1  0.22048000  0.14716000  0.43282000  1
  H  H212  1  0.07280000  0.95760000  0.36230000  1
  H  H213  1  0.08820000  0.02240000  0.36940000  1
  H  H214  1  0.25110000  0.97380000  0.44290000  1
  H  H215  1  0.19520000  0.93240000  0.46700000  1
  H  H216  1  0.93300000  0.19480000  0.63320000  1
  H  H217  1  0.96550000  0.28600000  0.67810000  1
  H  H218  1  0.16420000  0.40760000  0.61100000  1
  H  H219  1  0.12970000  0.31500000  0.56600000  1
  H  H220  1  0.97570000  0.39160000  0.69920000  1
  H  H221  1  0.99600000  0.59220000  0.81550000  1
  H  H222  1  0.24330000  0.71860000  0.81590000  1
  H  H223  1  0.26550000  0.64920000  0.76720000  1
  H  H224  1  0.25500000  0.55160000  0.71200000  1
  H  H225  1  0.21610000  0.45780000  0.66770000  1
  H  H226  1  0.00920000  0.63640000  0.88020000  1
  H  H227  1  0.99410000  0.71260000  0.92620000  1
  H  H228  1  0.18190000  0.87780000  0.87540000  1
  H  H229  1  0.20050000  0.80240000  0.82960000  1
  H  H230  1  0.06700000  0.80520000  0.63320000  1
  H  H231  1  0.03450000  0.71400000  0.67810000  1
  H  H232  1  0.83580000  0.59240000  0.61100000  1
  H  H233  1  0.87030000  0.68500000  0.56600000  1
  H  H234  1  0.02430000  0.60840000  0.69920000  1
  H  H235  1  0.00400000  0.40780000  0.81550000  1
  H  H236  1  0.75670000  0.28140000  0.81590000  1
  H  H237  1  0.73450000  0.35080000  0.76720000  1
  H  H238  1  0.74500000  0.44840000  0.71200000  1
  H  H239  1  0.78390000  0.54220000  0.66770000  1
  H  H240  1  0.99080000  0.36360000  0.88020000  1
  H  H241  1  0.00590000  0.28740000  0.92620000  1
  H  H242  1  0.81810000  0.12220000  0.87540000  1
  H  H243  1  0.79950000  0.19760000  0.82960000  1
  H  H244  1  0.92720000  0.04240000  0.36230000  1
  H  H245  1  0.91180000  0.97760000  0.36940000  1
  H  H246  1  0.74890000  0.02620000  0.44290000  1
  H  H247  1  0.80480000  0.06760000  0.46700000  1
  H  H248  1  0.11520000  0.04240000  0.13770000  1
  H  H249  1  0.06580000  0.97760000  0.13060000  1
  H  H250  1  0.27730000  0.02620000  0.05710000  1
  H  H251  1  0.26280000  0.06760000  0.03300000  1
  H  H252  1  0.73820000  0.80520000  0.86680000  1
  H  H253  1  0.67950000  0.71400000  0.82190000  1
  H  H254  1  0.75660000  0.59240000  0.88900000  1
  H  H255  1  0.81470000  0.68500000  0.93400000  1
  H  H256  1  0.58410000  0.60840000  0.80080000  1
  H  H257  1  0.40380000  0.40780000  0.68450000  1
  H  H258  1  0.52470000  0.28140000  0.68410000  1
  H  H259  1  0.61630000  0.35080000  0.73280000  1
  H  H260  1  0.70340000  0.44840000  0.78800000  1
  H  H261  1  0.75830000  0.54220000  0.83230000  1
  H  H262  1  0.37280000  0.36360000  0.61980000  1
  H  H263  1  0.28150000  0.28740000  0.57380000  1
  H  H264  1  0.30410000  0.12220000  0.62460000  1
  H  H265  1  0.39810000  0.19760000  0.67040000  1
  H  H266  1  0.26180000  0.19480000  0.86680000  1
  H  H267  1  0.32050000  0.28600000  0.82190000  1
  H  H268  1  0.24340000  0.40760000  0.88900000  1
  H  H269  1  0.18530000  0.31500000  0.93400000  1
  H  H270  1  0.41590000  0.39160000  0.80080000  1
  H  H271  1  0.59620000  0.59220000  0.68450000  1
  H  H272  1  0.47530000  0.71860000  0.68410000  1
  H  H273  1  0.38370000  0.64920000  0.73280000  1
  H  H274  1  0.29660000  0.55160000  0.78800000  1
  H  H275  1  0.24170000  0.45780000  0.83230000  1
  H  H276  1  0.62720000  0.63640000  0.61980000  1
  H  H277  1  0.71850000  0.71260000  0.57380000  1
  H  H278  1  0.69590000  0.87780000  0.62460000  1
  H  H279  1  0.60190000  0.80240000  0.67040000  1
  H  H280  1  0.88480000  0.95760000  0.13770000  1
  H  H281  1  0.93420000  0.02240000  0.13060000  1
  H  H282  1  0.72270000  0.97380000  0.05710000  1
  H  H283  1  0.73720000  0.93240000  0.03300000  1
  H  H284  1  0.92720000  0.04240000  0.63770000  1
  H  H285  1  0.91180000  0.97760000  0.63060000  1
  H  H286  1  0.74890000  0.02620000  0.55710000  1
  H  H287  1  0.80480000  0.06760000  0.53300000  1
  H  H288  1  0.06700000  0.80520000  0.36680000  1
  H  H289  1  0.03450000  0.71400000  0.32190000  1
  H  H290  1  0.83580000  0.59240000  0.38900000  1
  H  H291  1  0.87030000  0.68500000  0.43400000  1
  H  H292  1  0.02430000  0.60840000  0.30080000  1
  H  H293  1  0.00400000  0.40780000  0.18450000  1
  H  H294  1  0.75670000  0.28140000  0.18410000  1
  H  H295  1  0.73450000  0.35080000  0.23280000  1
  H  H296  1  0.74500000  0.44840000  0.28800000  1
  H  H297  1  0.78390000  0.54220000  0.33230000  1
  H  H298  1  0.99080000  0.36360000  0.11980000  1
  H  H299  1  0.00590000  0.28740000  0.07380000  1
  H  H300  1  0.81810000  0.12220000  0.12460000  1
  H  H301  1  0.79950000  0.19760000  0.17040000  1
  H  H302  1  0.93300000  0.19480000  0.36680000  1
  H  H303  1  0.96550000  0.28600000  0.32190000  1
  H  H304  1  0.16420000  0.40760000  0.38900000  1
  H  H305  1  0.12970000  0.31500000  0.43400000  1
  H  H306  1  0.97570000  0.39160000  0.30080000  1
  H  H307  1  0.99600000  0.59220000  0.18450000  1
  H  H308  1  0.24330000  0.71860000  0.18410000  1
  H  H309  1  0.26550000  0.64920000  0.23280000  1
  H  H310  1  0.25500000  0.55160000  0.28800000  1
  H  H311  1  0.21610000  0.45780000  0.33230000  1
  H  H312  1  0.00920000  0.63640000  0.11980000  1
  H  H313  1  0.99410000  0.71260000  0.07380000  1
  H  H314  1  0.18190000  0.87780000  0.12460000  1
  H  H315  1  0.20050000  0.80240000  0.17040000  1
  H  H316  1  0.07280000  0.95760000  0.63770000  1
  H  H317  1  0.08820000  0.02240000  0.63060000  1
  H  H318  1  0.25110000  0.97380000  0.55710000  1
  H  H319  1  0.19520000  0.93240000  0.53300000  1
  H  H320  1  0.88480000  0.95760000  0.86230000  1
  H  H321  1  0.93420000  0.02240000  0.86940000  1
  H  H322  1  0.72270000  0.97380000  0.94290000  1
  H  H323  1  0.73720000  0.93240000  0.96700000  1
  H  H324  1  0.26180000  0.19480000  0.13320000  1
  H  H325  1  0.32050000  0.28600000  0.17810000  1
  H  H326  1  0.24340000  0.40760000  0.11100000  1
  H  H327  1  0.18530000  0.31500000  0.06600000  1
  H  H328  1  0.41590000  0.39160000  0.19920000  1
  H  H329  1  0.59620000  0.59220000  0.31550000  1
  H  H330  1  0.47530000  0.71860000  0.31590000  1
  H  H331  1  0.38370000  0.64920000  0.26720000  1
  H  H332  1  0.29660000  0.55160000  0.21200000  1
  H  H333  1  0.24170000  0.45780000  0.16770000  1
  H  H334  1  0.62720000  0.63640000  0.38020000  1
  H  H335  1  0.71850000  0.71260000  0.42620000  1
  H  H336  1  0.69590000  0.87780000  0.37540000  1
  H  H337  1  0.60190000  0.80240000  0.32960000  1
  H  H338  1  0.73820000  0.80520000  0.13320000  1
  H  H339  1  0.67950000  0.71400000  0.17810000  1
  H  H340  1  0.75660000  0.59240000  0.11100000  1
  H  H341  1  0.81470000  0.68500000  0.06600000  1
  H  H342  1  0.58410000  0.60840000  0.19920000  1
  H  H343  1  0.40380000  0.40780000  0.31550000  1
  H  H344  1  0.52470000  0.28140000  0.31590000  1
  H  H345  1  0.61630000  0.35080000  0.26720000  1
  H  H346  1  0.70340000  0.44840000  0.21200000  1
  H  H347  1  0.75830000  0.54220000  0.16770000  1
  H  H348  1  0.37280000  0.36360000  0.38020000  1
  H  H349  1  0.28150000  0.28740000  0.42620000  1
  H  H350  1  0.30410000  0.12220000  0.37540000  1
  H  H351  1  0.39810000  0.19760000  0.32960000  1
  H  H352  1  0.11520000  0.04240000  0.86230000  1
  H  H353  1  0.06580000  0.97760000  0.86940000  1
  H  H354  1  0.27730000  0.02620000  0.94290000  1
  H  H355  1  0.26280000  0.06760000  0.96700000  1
  O  O356  1  0.13268000  0.04576000  0.50000000  1
  O  O357  1  0.04784000  0.92148000  0.50000000  1
  O  O358  1  0.95654000  0.93758000  0.44705000  1
  O  O359  1  0.08198000  0.98496000  0.38275000  1
  O  O360  1  0.19928000  0.96242000  0.44891000  1
  O  O361  1  0.06102000  0.19776000  0.53904000  1
  O  O362  1  0.94892000  0.12852000  0.57469000  1
  O  O363  1  0.11362000  0.91754000  0.92639000  1
  O  O364  1  0.02078000  0.82558000  0.96044000  1
  O  O365  1  0.93898000  0.80224000  0.53904000  1
  O  O366  1  0.05108000  0.87148000  0.57469000  1
  O  O367  1  0.88638000  0.08246000  0.92639000  1
  O  O368  1  0.97922000  0.17442000  0.96044000  1
  O  O369  1  0.04346000  0.06242000  0.44705000  1
  O  O370  1  0.91802000  0.01504000  0.38275000  1
  O  O371  1  0.80072000  0.03758000  0.44891000  1
  O  O372  1  0.86732000  0.95424000  0.50000000  1
  O  O373  1  0.95216000  0.07852000  0.50000000  1
  O  O374  1  0.04346000  0.06242000  0.55295000  1
  O  O375  1  0.06102000  0.19776000  0.46096000  1
  O  O376  1  0.05108000  0.87148000  0.42531000  1
  O  O377  1  0.94892000  0.12852000  0.42531000  1
  O  O378  1  0.19608000  0.08246000  0.42639000  1
  O  O379  1  0.80392000  0.91754000  0.42639000  1
  O  O380  1  0.19520000  0.17442000  0.53956000  1
  O  O381  1  0.19520000  0.17442000  0.46044000  1
  O  O382  1  0.95654000  0.93758000  0.55295000  1
  O  O383  1  0.93898000  0.80224000  0.46096000  1
  O  O384  1  0.80480000  0.82558000  0.53956000  1
  O  O385  1  0.80480000  0.82558000  0.46044000  1
  O  O386  1  0.08692000  0.95424000  1.00000000  1
  O  O387  1  0.12636000  0.07852000  0.00000000  1
  O  O388  1  0.01896000  0.06242000  0.05295000  1
  O  O389  1  0.09702000  0.01504000  0.11725000  1
  O  O390  1  0.23686000  0.03758000  0.05109000  1
  O  O391  1  0.86326000  0.80224000  0.96096000  1
  O  O392  1  0.82040000  0.87148000  0.92531000  1
  O  O393  1  0.19608000  0.08246000  0.57361000  1
  O  O394  1  0.13674000  0.19776000  0.96096000  1
  O  O395  1  0.17960000  0.12852000  0.92531000  1
  O  O396  1  0.80392000  0.91754000  0.57361000  1
  O  O397  1  0.98104000  0.93758000  0.05295000  1
  O  O398  1  0.90298000  0.98496000  0.11725000  1
  O  O399  1  0.76314000  0.96242000  0.05109000  1
  O  O400  1  0.91308000  0.04576000  0.00000000  1
  O  O401  1  0.87364000  0.92148000  1.00000000  1
  O  O402  1  0.98104000  0.93758000  0.94705000  1
  O  O403  1  0.86326000  0.80224000  0.03904000  1
  O  O404  1  0.17960000  0.12852000  0.07469000  1
  O  O405  1  0.82040000  0.87148000  0.07469000  1
  O  O406  1  0.11362000  0.91754000  0.07361000  1
  O  O407  1  0.88638000  0.08246000  0.07361000  1
  O  O408  1  0.02078000  0.82558000  0.03956000  1
  O  O409  1  0.01896000  0.06242000  0.94705000  1
  O  O410  1  0.13674000  0.19776000  0.03904000  1
  O  O411  1  0.97922000  0.17442000  0.03956000  1
  O  O412  1  0.91802000  0.01504000  0.61725000  1
  O  O413  1  0.80072000  0.03758000  0.55109000  1
  O  O414  1  0.08198000  0.98496000  0.61725000  1
  O  O415  1  0.19928000  0.96242000  0.55109000  1
  O  O416  1  0.90298000  0.98496000  0.88275000  1
  O  O417  1  0.76314000  0.96242000  0.94891000  1
  O  O418  1  0.09702000  0.01504000  0.88275000  1
  O  O419  1  0.23686000  0.03758000  0.94891000  1
  Zr  Zr420  1  0.08808000  0.12730000  0.50000000  1
  Zr  Zr421  1  0.08966000  0.98352000  0.44752000  1
  Zr  Zr422  1  0.91034000  0.01648000  0.44752000  1
  Zr  Zr423  1  0.91192000  0.87270000  0.50000000  1
  Zr  Zr424  1  0.03922000  0.12730000  0.00000000  1
  Zr  Zr425  1  0.96078000  0.87270000  1.00000000  1
  Zr  Zr426  1  0.91034000  0.01648000  0.55248000  1
  Zr  Zr427  1  0.08966000  0.98352000  0.55248000  1
  Zr  Zr428  1  0.89386000  0.98352000  0.94752000  1
  Zr  Zr429  1  0.10614000  0.01648000  0.94752000  1
  Zr  Zr430  1  0.10614000  0.01648000  0.05248000  1
  Zr  Zr431  1  0.89386000  0.98352000  0.05248000  1
