# generated using pymatgen
data_ZrCd(CO2)8
_symmetry_space_group_name_H-M   'P 1'
_cell_length_a   8.79300000
_cell_length_b   8.79300000
_cell_length_c   24.53000000
_cell_angle_alpha   90.00000000
_cell_angle_beta   90.00000000
_cell_angle_gamma   120.00000000
_symmetry_Int_Tables_number   1
_chemical_formula_structural   ZrCd(CO2)8
_chemical_formula_sum   'Zr3 Cd3 C24 O48'
_cell_volume   1642.48845734
_cell_formula_units_Z   3
loop_
 _symmetry_equiv_pos_site_id
 _symmetry_equiv_pos_as_xyz
  1  'x, y, z'
loop_
 _atom_site_type_symbol
 _atom_site_label
 _atom_site_symmetry_multiplicity
 _atom_site_fract_x
 _atom_site_fract_y
 _atom_site_fract_z
 _atom_site_occupancy
  Zr  Zr0  1  0.00000000  0.50000000  0.16670000  1
  Zr  Zr1  1  0.50000000  0.50000000  0.50000000  1
  Zr  Zr2  1  0.50000000  0.00000000  0.83333333  1
  Cd  Cd3  1  0.50000000  0.00000000  0.33333333  1
  Cd  Cd4  1  0.00000000  0.50000000  0.66663333  1
  Cd  Cd5  1  0.50000000  0.50000000  0.99996667  1
  C  C6  1  0.29670000  0.67940000  0.24950000  1
  C  C7  1  0.21120000  0.79530000  0.24830000  1
  C  C8  1  0.70330000  0.32060000  0.24950000  1
  C  C9  1  0.78880000  0.20470000  0.24830000  1
  C  C10  1  0.61730000  0.32060000  0.41720000  1
  C  C11  1  0.41590000  0.20470000  0.41840000  1
  C  C12  1  0.38270000  0.67940000  0.41720000  1
  C  C13  1  0.58410000  0.79530000  0.41840000  1
  C  C14  1  0.67940000  0.38270000  0.58283333  1
  C  C15  1  0.79530000  0.58410000  0.58163333  1
  C  C16  1  0.32060000  0.61730000  0.58283333  1
  C  C17  1  0.20470000  0.41590000  0.58163333  1
  C  C18  1  0.32060000  0.70330000  0.75053333  1
  C  C19  1  0.20470000  0.78880000  0.75173333  1
  C  C20  1  0.67940000  0.29670000  0.75053333  1
  C  C21  1  0.79530000  0.21120000  0.75173333  1
  C  C22  1  0.38270000  0.70330000  0.91616667  1
  C  C23  1  0.58410000  0.78880000  0.91496667  1
  C  C24  1  0.61730000  0.29670000  0.91616667  1
  C  C25  1  0.41590000  0.21120000  0.91496667  1
  C  C26  1  0.70330000  0.38270000  0.08386667  1
  C  C27  1  0.78880000  0.58410000  0.08506667  1
  C  C28  1  0.29670000  0.61730000  0.08386667  1
  C  C29  1  0.21120000  0.41590000  0.08506667  1
  O  O30  1  0.43620000  0.74220000  0.27640000  1
  O  O31  1  0.08880000  0.74680000  0.21340000  1
  O  O32  1  0.25950000  0.91970000  0.28050000  1
  O  O33  1  0.23180000  0.54850000  0.21910000  1
  O  O34  1  0.56380000  0.25780000  0.27640000  1
  O  O35  1  0.91120000  0.25320000  0.21340000  1
  O  O36  1  0.74050000  0.08030000  0.28050000  1
  O  O37  1  0.76820000  0.45150000  0.21910000  1
  O  O38  1  0.69400000  0.25780000  0.39030000  1
  O  O39  1  0.34200000  0.25320000  0.45330000  1
  O  O40  1  0.33980000  0.08030000  0.38620000  1
  O  O41  1  0.68330000  0.45150000  0.44760000  1
  O  O42  1  0.30600000  0.74220000  0.39030000  1
  O  O43  1  0.65800000  0.74680000  0.45330000  1
  O  O44  1  0.66020000  0.91970000  0.38620000  1
  O  O45  1  0.31670000  0.54850000  0.44760000  1
  O  O46  1  0.91120000  0.65800000  0.11990000  1
  O  O47  1  0.08880000  0.34200000  0.11990000  1
  O  O48  1  0.76820000  0.31670000  0.11420000  1
  O  O49  1  0.23180000  0.68330000  0.11420000  1
  O  O50  1  0.74220000  0.30600000  0.60973333  1
  O  O51  1  0.74680000  0.65800000  0.54673333  1
  O  O52  1  0.91970000  0.66020000  0.61383333  1
  O  O53  1  0.54850000  0.31670000  0.55243333  1
  O  O54  1  0.25780000  0.69400000  0.60973333  1
  O  O55  1  0.25320000  0.34200000  0.54673333  1
  O  O56  1  0.08030000  0.33980000  0.61383333  1
  O  O57  1  0.45150000  0.68330000  0.55243333  1
  O  O58  1  0.25780000  0.56380000  0.72363333  1
  O  O59  1  0.25320000  0.91120000  0.78663333  1
  O  O60  1  0.08030000  0.74050000  0.71953333  1
  O  O61  1  0.45150000  0.76820000  0.78093333  1
  O  O62  1  0.74220000  0.43620000  0.72363333  1
  O  O63  1  0.74680000  0.08880000  0.78663333  1
  O  O64  1  0.91970000  0.25950000  0.71953333  1
  O  O65  1  0.54850000  0.23180000  0.78093333  1
  O  O66  1  0.30600000  0.56380000  0.94306667  1
  O  O67  1  0.65800000  0.91120000  0.88006667  1
  O  O68  1  0.66020000  0.74050000  0.94716667  1
  O  O69  1  0.31670000  0.76820000  0.88576667  1
  O  O70  1  0.69400000  0.43620000  0.94306667  1
  O  O71  1  0.34200000  0.08880000  0.88006667  1
  O  O72  1  0.33980000  0.25950000  0.94716667  1
  O  O73  1  0.68330000  0.23180000  0.88576667  1
  O  O74  1  0.56380000  0.30600000  0.05696667  1
  O  O75  1  0.74050000  0.66020000  0.05286667  1
  O  O76  1  0.43620000  0.69400000  0.05696667  1
  O  O77  1  0.25950000  0.33980000  0.05286667  1
