# generated using pymatgen
data_Zr6PH51C43O36
_symmetry_space_group_name_H-M   'P 1'
_cell_length_a   12.29030000
_cell_length_b   16.66600000
_cell_length_c   19.13800000
_cell_angle_alpha   72.79000000
_cell_angle_beta   80.54000000
_cell_angle_gamma   74.88600000
_symmetry_Int_Tables_number   1
_chemical_formula_structural   Zr6PH51C43O36
_chemical_formula_sum   'Zr12 P2 H102 C86 O72'
_cell_volume   3598.79695198
_cell_formula_units_Z   2
loop_
 _symmetry_equiv_pos_site_id
 _symmetry_equiv_pos_as_xyz
  1  'x, y, z'
loop_
 _atom_site_type_symbol
 _atom_site_label
 _atom_site_symmetry_multiplicity
 _atom_site_fract_x
 _atom_site_fract_y
 _atom_site_fract_z
 _atom_site_occupancy
  Zr  Zr0  1  0.39524000  0.29250000  0.09346000  1
  Zr  Zr1  1  0.66570000  0.34829000  0.04443000  1
  Zr  Zr2  1  0.49204000  0.38784000  0.20508000  1
  Zr  Zr3  1  0.48342000  0.17029000  0.26534000  1
  Zr  Zr4  1  0.64771000  0.13441000  0.10371000  1
  Zr  Zr5  1  0.74426000  0.22936000  0.21723000  1
  Zr  Zr6  1  0.33430000  0.65171000  0.95557000  1
  Zr  Zr7  1  0.25574000  0.77064000  0.78277000  1
  Zr  Zr8  1  0.50796000  0.61216000  0.79492000  1
  Zr  Zr9  1  0.35229000  0.86559000  0.89629000  1
  Zr  Zr10  1  0.60476000  0.70750000  0.90654000  1
  Zr  Zr11  1  0.51658000  0.82971000  0.73466000  1
  P  P12  1  0.06355000  0.37554000  0.63159000  1
  P  P13  1  0.93645000  0.62446000  0.36841000  1
  H  H14  1  0.44596000  0.46096000  0.05496000  1
  H  H15  1  0.43367000  0.10331000  0.15828000  1
  H  H16  1  0.41930000  0.05550000  0.96604000  1
  H  H17  1  0.47655000  0.12404000  0.90367000  1
  H  H18  1  0.34613000  0.15035000  0.93305000  1
  H  H19  1  0.11384000  0.13617000  0.28953000  1
  H  H20  1  0.13906000  0.10322000  0.21673000  1
  H  H21  1  0.06997000  0.19970000  0.21386000  1
  H  H22  1  0.12762000  0.55896000  0.17521000  1
  H  H23  1  0.06784000  0.49415000  0.15661000  1
  H  H24  1  0.12842000  0.55816000  0.09172000  1
  H  H25  1  0.84452000  0.19572000  0.08348000  1
  H  H26  1  0.58516000  0.25390000  0.33597000  1
  H  H27  1  0.27066000  0.43879000  0.86495000  1
  H  H28  1  0.24143000  0.53771000  0.86629000  1
  H  H29  1  0.16343000  0.47470000  0.91600000  1
  H  H30  1  0.88830000  0.13464000  0.88931000  1
  H  H31  1  0.94983000  0.20433000  0.89794000  1
  H  H32  1  0.85027000  0.23370000  0.84510000  1
  H  H33  1  0.01908000  0.40495000  0.03405000  1
  H  H34  1  0.07427000  0.30401000  0.04786000  1
  H  H35  1  0.06003000  0.34939000  0.11276000  1
  H  H36  1  0.51137000  0.67506000  0.14599000  1
  H  H37  1  0.37644000  0.69014000  0.15984000  1
  H  H38  1  0.43550000  0.72047000  0.07848000  1
  H  H39  1  0.55773000  0.92416000  0.45517000  1
  H  H40  1  0.67764000  0.92391000  0.40751000  1
  H  H41  1  0.58604000  0.88491000  0.38569000  1
  H  H42  1  0.23289000  0.45583000  0.38311000  1
  H  H43  1  0.28138000  0.20000000  0.47247000  1
  H  H44  1  0.96331000  0.01642000  0.38524000  1
  H  H45  1  0.00325000  0.98079000  0.31398000  1
  H  H46  1  0.88823000  0.96432000  0.36272000  1
  H  H47  1  0.11926000  0.48007000  0.48869000  1
  H  H48  1  0.17642000  0.22270000  0.57999000  1
  H  H49  1  0.99504000  0.51209000  0.69908000  1
  H  H50  1  0.28992000  0.41548000  0.59448000  1
  H  H51  1  0.27164000  0.29707000  0.70732000  1
  H  H52  1  0.98021000  0.22600000  0.70931000  1
  H  H53  1  0.08094000  0.60096000  0.73417000  1
  H  H54  1  0.37994000  0.50026000  0.63416000  1
  H  H55  1  0.34221000  0.16252000  0.78457000  1
  H  H56  1  0.05158000  0.09167000  0.78768000  1
  H  H57  1  0.15795000  0.00734000  0.01678000  1
  H  H58  1  0.22115000  0.06779000  0.03873000  1
  H  H59  1  0.15059000  0.10469000  0.96834000  1
  H  H60  1  0.98716000  0.05698000  0.15742000  1
  H  H61  1  0.34249000  0.83367000  0.19836000  1
  H  H62  1  0.30093000  0.90447000  0.12510000  1
  H  H63  1  0.22621000  0.90391000  0.20199000  1
  H  H64  1  0.46315000  0.95136000  0.25206000  1
  H  H65  1  0.55404000  0.53904000  0.94504000  1
  H  H66  1  0.56633000  0.89669000  0.84172000  1
  H  H67  1  0.58070000  0.94450000  0.03396000  1
  H  H68  1  0.52345000  0.87596000  0.09633000  1
  H  H69  1  0.65387000  0.84965000  0.06695000  1
  H  H70  1  0.88616000  0.86383000  0.71047000  1
  H  H71  1  0.86094000  0.89678000  0.78327000  1
  H  H72  1  0.93003000  0.80030000  0.78614000  1
  H  H73  1  0.87238000  0.44104000  0.82479000  1
  H  H74  1  0.93216000  0.50585000  0.84339000  1
  H  H75  1  0.87158000  0.44184000  0.90828000  1
  H  H76  1  0.15548000  0.80428000  0.91652000  1
  H  H77  1  0.41484000  0.74610000  0.66403000  1
  H  H78  1  0.72934000  0.56121000  0.13505000  1
  H  H79  1  0.75857000  0.46229000  0.13371000  1
  H  H80  1  0.83657000  0.52530000  0.08400000  1
  H  H81  1  0.11170000  0.86536000  0.11069000  1
  H  H82  1  0.05017000  0.79567000  0.10206000  1
  H  H83  1  0.14973000  0.76630000  0.15490000  1
  H  H84  1  0.98092000  0.59505000  0.96595000  1
  H  H85  1  0.92573000  0.69599000  0.95214000  1
  H  H86  1  0.93997000  0.65061000  0.88724000  1
  H  H87  1  0.48863000  0.32494000  0.85401000  1
  H  H88  1  0.62356000  0.30986000  0.84016000  1
  H  H89  1  0.56450000  0.27953000  0.92152000  1
  H  H90  1  0.44227000  0.07584000  0.54483000  1
  H  H91  1  0.32236000  0.07609000  0.59249000  1
  H  H92  1  0.41396000  0.11509000  0.61431000  1
  H  H93  1  0.76711000  0.54417000  0.61689000  1
  H  H94  1  0.71862000  0.80000000  0.52753000  1
  H  H95  1  0.03669000  0.98358000  0.61476000  1
  H  H96  1  0.99675000  0.01921000  0.68602000  1
  H  H97  1  0.11177000  0.03568000  0.63728000  1
  H  H98  1  0.88074000  0.51993000  0.51131000  1
  H  H99  1  0.82358000  0.77730000  0.42001000  1
  H  H100  1  0.00496000  0.48791000  0.30092000  1
  H  H101  1  0.71008000  0.58452000  0.40552000  1
  H  H102  1  0.72836000  0.70293000  0.29268000  1
  H  H103  1  0.01979000  0.77400000  0.29069000  1
  H  H104  1  0.91906000  0.39904000  0.26583000  1
  H  H105  1  0.62006000  0.49974000  0.36584000  1
  H  H106  1  0.65779000  0.83748000  0.21543000  1
  H  H107  1  0.94842000  0.90833000  0.21232000  1
  H  H108  1  0.84205000  0.99266000  0.98322000  1
  H  H109  1  0.77885000  0.93221000  0.96127000  1
  H  H110  1  0.84941000  0.89531000  0.03166000  1
  H  H111  1  0.01284000  0.94302000  0.84258000  1
  H  H112  1  0.65751000  0.16633000  0.80164000  1
  H  H113  1  0.69907000  0.09553000  0.87490000  1
  H  H114  1  0.77379000  0.09609000  0.79801000  1
  H  H115  1  0.53685000  0.04864000  0.74794000  1
  C  C116  1  0.45440000  0.14690000  0.00480000  1
  C  C117  1  0.24040000  0.18300000  0.21790000  1
  C  C118  1  0.24130000  0.45510000  0.14900000  1
  C  C119  1  0.31310000  0.45580000  0.95680000  1
  C  C120  1  0.42120000  0.11660000  0.94690000  1
  C  C121  1  0.13130000  0.15290000  0.23610000  1
  C  C122  1  0.13170000  0.52250000  0.14260000  1
  C  C123  1  0.24110000  0.47870000  0.89590000  1
  C  C124  1  0.79310000  0.21020000  0.95370000  1
  C  C125  1  0.91090000  0.32940000  0.09440000  1
  C  C126  1  0.35230000  0.30920000  0.35450000  1
  C  C127  1  0.44970000  0.58920000  0.11390000  1
  C  C128  1  0.54880000  0.01630000  0.35730000  1
  C  C129  1  0.87760000  0.19440000  0.89120000  1
  C  C130  1  0.02610000  0.34860000  0.07020000  1
  C  C131  1  0.27330000  0.32600000  0.41920000  1
  C  C132  1  0.44260000  0.67640000  0.12560000  1
  C  C133  1  0.59660000  0.92990000  0.40560000  1
  C  C134  1  0.87300000  0.08830000  0.29760000  1
  C  C135  1  0.22250000  0.40830000  0.42370000  1
  C  C136  1  0.25210000  0.25720000  0.47680000  1
  C  C137  1  0.93760000  0.00520000  0.34390000  1
  C  C138  1  0.15600000  0.42300000  0.48670000  1
  C  C139  1  0.18880000  0.27070000  0.54040000  1
  C  C140  1  0.14350000  0.35300000  0.54720000  1
  C  C141  1  0.13670000  0.45100000  0.64760000  1
  C  C142  1  0.12090000  0.27490000  0.69950000  1
  C  C143  1  0.07380000  0.50900000  0.68650000  1
  C  C144  1  0.24830000  0.45090000  0.62510000  1
  C  C145  1  0.22670000  0.25530000  0.72290000  1
  C  C146  1  0.05420000  0.21310000  0.72430000  1
  C  C147  1  0.12420000  0.56200000  0.70710000  1
  C  C148  1  0.30130000  0.50310000  0.64730000  1
  C  C149  1  0.26870000  0.17550000  0.76890000  1
  C  C150  1  0.09670000  0.13330000  0.77070000  1
  C  C151  1  0.24050000  0.55780000  0.68760000  1
  C  C152  1  0.20340000  0.11430000  0.79200000  1
  C  C153  1  0.29650000  0.61280000  0.71320000  1
  C  C154  1  0.25330000  0.02680000  0.83850000  1
  C  C155  1  0.15390000  0.06630000  0.01820000  1
  C  C156  1  0.04970000  0.09570000  0.06550000  1
  C  C157  1  0.30350000  0.89360000  0.17810000  1
  C  C158  1  0.36720000  0.95400000  0.19170000  1
  C  C159  1  0.54560000  0.85310000  0.99520000  1
  C  C160  1  0.75960000  0.81700000  0.78210000  1
  C  C161  1  0.75870000  0.54490000  0.85100000  1
  C  C162  1  0.68690000  0.54420000  0.04320000  1
  C  C163  1  0.57880000  0.88340000  0.05310000  1
  C  C164  1  0.86870000  0.84710000  0.76390000  1
  C  C165  1  0.86830000  0.47750000  0.85740000  1
  C  C166  1  0.75890000  0.52130000  0.10410000  1
  C  C167  1  0.20690000  0.78980000  0.04630000  1
  C  C168  1  0.08910000  0.67060000  0.90560000  1
  C  C169  1  0.64770000  0.69080000  0.64550000  1
  C  C170  1  0.55030000  0.41080000  0.88610000  1
  C  C171  1  0.45120000  0.98370000  0.64270000  1
  C  C172  1  0.12240000  0.80560000  0.10880000  1
  C  C173  1  0.97390000  0.65140000  0.92980000  1
  C  C174  1  0.72670000  0.67400000  0.58080000  1
  C  C175  1  0.55740000  0.32360000  0.87440000  1
  C  C176  1  0.40340000  0.07010000  0.59440000  1
  C  C177  1  0.12700000  0.91170000  0.70240000  1
  C  C178  1  0.77750000  0.59170000  0.57630000  1
  C  C179  1  0.74790000  0.74280000  0.52320000  1
  C  C180  1  0.06240000  0.99480000  0.65610000  1
  C  C181  1  0.84400000  0.57700000  0.51330000  1
  C  C182  1  0.81120000  0.72930000  0.45960000  1
  C  C183  1  0.85650000  0.64700000  0.45280000  1
  C  C184  1  0.86330000  0.54900000  0.35240000  1
  C  C185  1  0.87910000  0.72510000  0.30050000  1
  C  C186  1  0.92620000  0.49100000  0.31350000  1
  C  C187  1  0.75170000  0.54910000  0.37490000  1
  C  C188  1  0.77330000  0.74470000  0.27710000  1
  C  C189  1  0.94580000  0.78690000  0.27570000  1
  C  C190  1  0.87580000  0.43800000  0.29290000  1
  C  C191  1  0.69870000  0.49690000  0.35270000  1
  C  C192  1  0.73130000  0.82450000  0.23110000  1
  C  C193  1  0.90330000  0.86670000  0.22930000  1
  C  C194  1  0.75950000  0.44220000  0.31240000  1
  C  C195  1  0.79660000  0.88570000  0.20800000  1
  C  C196  1  0.70350000  0.38720000  0.28680000  1
  C  C197  1  0.74670000  0.97320000  0.16150000  1
  C  C198  1  0.84610000  0.93370000  0.98180000  1
  C  C199  1  0.95030000  0.90430000  0.93450000  1
  C  C200  1  0.69650000  0.10640000  0.82190000  1
  C  C201  1  0.63280000  0.04600000  0.80830000  1
  O  O202  1  0.38730000  0.20880000  0.02536000  1
  O  O203  1  0.25670000  0.23200000  0.15437000  1
  O  O204  1  0.25320000  0.39790000  0.11589000  1
  O  O205  1  0.48270000  0.40240000  0.08427000  1
  O  O206  1  0.43220000  0.28870000  0.19518000  1
  O  O207  1  0.56680000  0.26048000  0.06004000  1
  O  O208  1  0.47470000  0.14812000  0.15758000  1
  O  O209  1  0.34470000  0.37600000  0.98672000  1
  O  O210  1  0.55110000  0.11020000  0.02710000  1
  O  O211  1  0.31020000  0.15560000  0.26630000  1
  O  O212  1  0.31370000  0.46020000  0.18576000  1
  O  O213  1  0.76520000  0.28650000  0.96021000  1
  O  O214  1  0.64960000  0.34100000  0.15557000  1
  O  O215  1  0.76490000  0.21410000  0.10451000  1
  O  O216  1  0.83930000  0.35980000  0.04687000  1
  O  O217  1  0.65840000  0.48790000  0.02284000  1
  O  O218  1  0.58700000  0.41770000  0.94078000  1
  O  O219  1  0.39020000  0.37200000  0.31158000  1
  O  O220  1  0.58190000  0.25480000  0.28387000  1
  O  O221  1  0.49450000  0.52470000  0.16277000  1
  O  O222  1  0.60050000  0.41740000  0.27342000  1
  O  O223  1  0.37670000  0.23320000  0.34777000  1
  O  O224  1  0.64450000  0.14740000  0.21118000  1
  O  O225  1  0.55140000  0.08470000  0.37300000  1
  O  O226  1  0.50440000  0.02360000  0.30020000  1
  O  O227  1  0.75400000  0.14810000  0.99636000  1
  O  O228  1  0.80620000  0.02830000  0.13280000  1
  O  O229  1  0.64220000  0.99500000  0.15250000  1
  O  O230  1  0.89180000  0.28480000  0.15900000  1
  O  O231  1  0.89100000  0.11030000  0.22810000  1
  O  O232  1  0.79700000  0.13950000  0.32740000  1
  O  O233  1  0.76570000  0.31830000  0.27610000  1
  O  O234  1  0.04610000  0.03960000  0.13190000  1
  O  O235  1  0.98060000  0.16160000  0.04830000  1
  O  O236  1  0.42880000  0.91660000  0.24640000  1
  O  O237  1  0.35850000  0.02800000  0.15660000  1
  O  O238  1  0.34160000  0.51210000  0.97716000  1
  O  O239  1  0.41300000  0.58230000  0.05922000  1
  O  O240  1  0.23430000  0.68170000  0.72390000  1
  O  O241  1  0.39950000  0.58260000  0.72658000  1
  O  O242  1  0.19380000  0.97170000  0.86720000  1
  O  O243  1  0.35780000  0.00500000  0.84750000  1
  O  O244  1  0.61270000  0.79120000  0.97464000  1
  O  O245  1  0.74330000  0.76800000  0.84563000  1
  O  O246  1  0.74680000  0.60210000  0.88411000  1
  O  O247  1  0.51730000  0.59760000  0.91573000  1
  O  O248  1  0.56780000  0.71130000  0.80482000  1
  O  O249  1  0.43320000  0.73952000  0.93996000  1
  O  O250  1  0.52530000  0.85188000  0.84242000  1
  O  O251  1  0.65530000  0.62400000  0.01328000  1
  O  O252  1  0.44890000  0.88980000  0.97290000  1
  O  O253  1  0.68980000  0.84440000  0.73370000  1
  O  O254  1  0.68630000  0.53980000  0.81424000  1
  O  O255  1  0.23480000  0.71350000  0.03979000  1
  O  O256  1  0.35040000  0.65900000  0.84443000  1
  O  O257  1  0.23510000  0.78590000  0.89549000  1
  O  O258  1  0.16070000  0.64020000  0.95313000  1
  O  O259  1  0.60980000  0.62800000  0.68842000  1
  O  O260  1  0.41810000  0.74520000  0.71613000  1
  O  O261  1  0.50550000  0.47530000  0.83723000  1
  O  O262  1  0.62330000  0.76680000  0.65223000  1
  O  O263  1  0.35550000  0.85260000  0.78882000  1
  O  O264  1  0.44860000  0.91530000  0.62700000  1
  O  O265  1  0.49560000  0.97640000  0.69980000  1
  O  O266  1  0.24600000  0.85190000  0.00364000  1
  O  O267  1  0.10820000  0.71520000  0.84100000  1
  O  O268  1  0.10900000  0.88970000  0.77190000  1
  O  O269  1  0.20300000  0.86050000  0.67260000  1
  O  O270  1  0.95390000  0.96040000  0.86810000  1
  O  O271  1  0.01940000  0.83840000  0.95170000  1
  O  O272  1  0.57120000  0.08340000  0.75360000  1
  O  O273  1  0.64150000  0.97200000  0.84340000  1
