# generated using pymatgen
data_Zr4H26C42O37
_symmetry_space_group_name_H-M   'P 1'
_cell_length_a   14.67034439
_cell_length_b   14.67000000
_cell_length_c   20.74700000
_cell_angle_alpha   90.00000000
_cell_angle_beta   90.00000000
_cell_angle_gamma   90.00134503
_symmetry_Int_Tables_number   1
_chemical_formula_structural   Zr4H26C42O37
_chemical_formula_sum   'Zr12 H78 C126 O111'
_cell_volume   4465.04386610
_cell_formula_units_Z   3
loop_
 _symmetry_equiv_pos_site_id
 _symmetry_equiv_pos_as_xyz
  1  'x, y, z'
loop_
 _atom_site_type_symbol
 _atom_site_label
 _atom_site_symmetry_multiplicity
 _atom_site_fract_x
 _atom_site_fract_y
 _atom_site_fract_z
 _atom_site_occupancy
  Zr  Zr0  1  0.11933000  0.88068000  0.40038000  1
  Zr  Zr1  1  0.88068000  0.88070000  0.40040000  1
  Zr  Zr2  1  0.61933000  0.38068000  0.90038000  1
  Zr  Zr3  1  0.38068000  0.38070000  0.90040000  1
  Zr  Zr4  1  0.88067000  0.11932000  0.40038000  1
  Zr  Zr5  1  0.11932000  0.11930000  0.40040000  1
  Zr  Zr6  1  0.38067000  0.61932000  0.90038000  1
  Zr  Zr7  1  0.61932000  0.61930000  0.90040000  1
  Zr  Zr8  1  0.00000000  0.00000000  0.51972000  1
  Zr  Zr9  1  0.00000000  0.00000000  0.28107000  1
  Zr  Zr10  1  0.50000000  0.50000000  0.01972000  1
  Zr  Zr11  1  0.50000000  0.50000000  0.78107000  1
  H  H12  1  0.39200000  0.70070000  0.55190000  1
  H  H13  1  0.40080000  0.80440000  0.39030000  1
  H  H14  1  0.13160000  0.09590000  0.75310000  1
  H  H15  1  0.11370000  0.91430000  0.63110000  1
  H  H16  1  0.39450000  0.26410000  0.53400000  1
  H  H17  1  0.08260000  0.12160000  0.67490000  1
  H  H18  1  0.27830000  0.31430000  0.38060000  1
  H  H19  1  0.38780000  0.36680000  0.39770000  1
  H  H20  1  0.59200000  0.62660000  0.54570000  1
  H  H21  1  0.60200000  0.55810000  0.61820000  1
  H  H22  1  0.39280000  0.59940000  0.65210000  1
  H  H23  1  0.89200000  0.20070000  0.05190000  1
  H  H24  1  0.90080000  0.30440000  0.89030000  1
  H  H25  1  0.84380000  0.85270000  0.88630000  1
  H  H26  1  0.96140000  0.87220000  0.86260000  1
  H  H27  1  0.98230000  0.66040000  0.82750000  1
  H  H28  1  0.77880000  0.17760000  0.05080000  1
  H  H29  1  0.47310000  0.58050000  0.30410000  1
  H  H30  1  0.59330000  0.73830000  0.19530000  1
  H  H31  1  0.09200000  0.12660000  0.04570000  1
  H  H32  1  0.10200000  0.05810000  0.11820000  1
  H  H33  1  0.89280000  0.09940000  0.15210000  1
  H  H34  1  0.51050000  0.69050000  0.33430000  1
  H  H35  1  0.86840000  0.90410000  0.75310000  1
  H  H36  1  0.88630000  0.08570000  0.63110000  1
  H  H37  1  0.60550000  0.73590000  0.53400000  1
  H  H38  1  0.91740000  0.87840000  0.67490000  1
  H  H39  1  0.72170000  0.68570000  0.38060000  1
  H  H40  1  0.61220000  0.63320000  0.39770000  1
  H  H41  1  0.85160000  0.46290000  0.47650000  1
  H  H42  1  0.72120000  0.32240000  0.55080000  1
  H  H43  1  0.02690000  0.91950000  0.80410000  1
  H  H44  1  0.40800000  0.37340000  0.54570000  1
  H  H45  1  0.39800000  0.44190000  0.61820000  1
  H  H46  1  0.60720000  0.40060000  0.65210000  1
  H  H47  1  0.38630000  0.58570000  0.13110000  1
  H  H48  1  0.81960000  0.95680000  0.77080000  1
  H  H49  1  0.86860000  0.87010000  0.82280000  1
  H  H50  1  0.67480000  0.84380000  0.89190000  1
  H  H51  1  0.22120000  0.82240000  0.05080000  1
  H  H52  1  0.52690000  0.41950000  0.30410000  1
  H  H53  1  0.40670000  0.26170000  0.19530000  1
  H  H54  1  0.90800000  0.87340000  0.04570000  1
  H  H55  1  0.89800000  0.94190000  0.11820000  1
  H  H56  1  0.10720000  0.90060000  0.15210000  1
  H  H57  1  0.48950000  0.30950000  0.33430000  1
  H  H58  1  0.58722000  0.14611000  0.40287000  1
  H  H59  1  0.41303000  0.14732000  0.40277000  1
  H  H60  1  0.58697000  0.85268000  0.40277000  1
  H  H61  1  0.64441000  0.08626000  0.91719000  1
  H  H62  1  0.35395000  0.08617000  0.89036000  1
  H  H63  1  0.35559000  0.91374000  0.91719000  1
  H  H64  1  0.49856000  0.80432000  0.95483000  1
  H  H65  1  0.79280000  0.90349000  0.54998000  1
  H  H66  1  0.87303000  0.86646000  0.68065000  1
  H  H67  1  0.75938000  0.78770000  0.76556000  1
  H  H68  1  0.63694000  0.63165000  0.62670000  1
  H  H69  1  0.70720000  0.59651000  0.04998000  1
  H  H70  1  0.78758000  0.77758000  0.03224000  1
  H  H71  1  0.86306000  0.86835000  0.12670000  1
  H  H72  1  0.74062000  0.71230000  0.26556000  1
  H  H73  1  0.29280000  0.40349000  0.04998000  1
  H  H74  1  0.21242000  0.22242000  0.03224000  1
  H  H75  1  0.13694000  0.13165000  0.12670000  1
  H  H76  1  0.25938000  0.28770000  0.26556000  1
  H  H77  1  0.20720000  0.09651000  0.54998000  1
  H  H78  1  0.12697000  0.13354000  0.68065000  1
  H  H79  1  0.24062000  0.21230000  0.76556000  1
  H  H80  1  0.36306000  0.36835000  0.62670000  1
  H  H81  1  0.80450000  0.50069000  0.95444000  1
  H  H82  1  0.90676000  0.50008000  0.84326000  1
  H  H83  1  0.08722000  0.64611000  0.90287000  1
  H  H84  1  0.93960000  0.39762000  0.84902000  1
  H  H85  1  0.08697000  0.35268000  0.90277000  1
  H  H86  1  0.99856000  0.30432000  0.45483000  1
  H  H87  1  0.85395000  0.58617000  0.39036000  1
  H  H88  1  0.14605000  0.41383000  0.39036000  1
  H  H89  1  0.14441000  0.58626000  0.41719000  1
  C  C90  1  0.34820000  0.65140000  0.74770000  1
  C  C91  1  0.20230000  0.20280000  0.60200000  1
  C  C92  1  0.15200000  0.15120000  0.55040000  1
  C  C93  1  0.29670000  0.70300000  0.69780000  1
  C  C94  1  0.15130000  0.84840000  0.55110000  1
  C  C95  1  0.30340000  0.00020000  0.39950000  1
  C  C96  1  0.40570000  0.00010000  0.39820000  1
  C  C97  1  0.18360000  0.18340000  0.66750000  1
  C  C98  1  0.26970000  0.26620000  0.58510000  1
  C  C99  1  0.31120000  0.31220000  0.63660000  1
  C  C100  1  0.24130000  0.23140000  0.71230000  1
  C  C101  1  0.29630000  0.29710000  0.69710000  1
  C  C102  1  0.45150000  0.92120000  0.40070000  1
  C  C103  1  0.23550000  0.76750000  0.71460000  1
  C  C104  1  0.45190000  0.08010000  0.40070000  1
  C  C105  1  0.30950000  0.68650000  0.63400000  1
  C  C106  1  0.26750000  0.73750000  0.58820000  1
  C  C107  1  0.20220000  0.79670000  0.60350000  1
  C  C108  1  0.34920000  0.34810000  0.74740000  1
  C  C109  1  0.18240000  0.81660000  0.66600000  1
  C  C110  1  0.41900000  0.82300000  0.44000000  1
  C  C111  1  0.37600000  0.70300000  0.50000000  1
  C  C112  1  0.15000000  0.92600000  0.67600000  1
  C  C113  1  0.10900000  0.06800000  0.70700000  1
  C  C114  1  0.32700000  0.25600000  0.51300000  1
  C  C115  1  0.33700000  0.31700000  0.41400000  1
  C  C116  1  0.00010000  0.69680000  0.39990000  1
  C  C117  1  0.00040000  0.59400000  0.39880000  1
  C  C118  1  0.92080000  0.54790000  0.39760000  1
  C  C119  1  0.07880000  0.54810000  0.40540000  1
  C  C120  1  0.41400000  0.64400000  0.61300000  1
  C  C121  1  0.55600000  0.59600000  0.58700000  1
  C  C122  1  0.84820000  0.15140000  0.24770000  1
  C  C123  1  0.70230000  0.70280000  0.10200000  1
  C  C124  1  0.65200000  0.65120000  0.05040000  1
  C  C125  1  0.79670000  0.20300000  0.19780000  1
  C  C126  1  0.65130000  0.34840000  0.05110000  1
  C  C127  1  0.80340000  0.50020000  0.89950000  1
  C  C128  1  0.90570000  0.50010000  0.89820000  1
  C  C129  1  0.68360000  0.68340000  0.16750000  1
  C  C130  1  0.76970000  0.76620000  0.08510000  1
  C  C131  1  0.81120000  0.81220000  0.13660000  1
  C  C132  1  0.74130000  0.73140000  0.21230000  1
  C  C133  1  0.79630000  0.79710000  0.19710000  1
  C  C134  1  0.95150000  0.42120000  0.90070000  1
  C  C135  1  0.73550000  0.26750000  0.21460000  1
  C  C136  1  0.95190000  0.58010000  0.90070000  1
  C  C137  1  0.80950000  0.18650000  0.13400000  1
  C  C138  1  0.76750000  0.23750000  0.08820000  1
  C  C139  1  0.70220000  0.29670000  0.10350000  1
  C  C140  1  0.84920000  0.84810000  0.24740000  1
  C  C141  1  0.68240000  0.31660000  0.16600000  1
  C  C142  1  0.91900000  0.32300000  0.94000000  1
  C  C143  1  0.87600000  0.20300000  0.00000000  1
  C  C144  1  0.50010000  0.19680000  0.89990000  1
  C  C145  1  0.50040000  0.09400000  0.89880000  1
  C  C146  1  0.42080000  0.04790000  0.89760000  1
  C  C147  1  0.57880000  0.04810000  0.90540000  1
  C  C148  1  0.91900000  0.67000000  0.85400000  1
  C  C149  1  0.90500000  0.82300000  0.86500000  1
  C  C150  1  0.57500000  0.66600000  0.19700000  1
  C  C151  1  0.50400000  0.64600000  0.29200000  1
  C  C152  1  0.91400000  0.14400000  0.11300000  1
  C  C153  1  0.05600000  0.09600000  0.08700000  1
  C  C154  1  0.65180000  0.34860000  0.74770000  1
  C  C155  1  0.79770000  0.79720000  0.60200000  1
  C  C156  1  0.84800000  0.84880000  0.55040000  1
  C  C157  1  0.70330000  0.29700000  0.69780000  1
  C  C158  1  0.84870000  0.15160000  0.55110000  1
  C  C159  1  0.69660000  0.99980000  0.39950000  1
  C  C160  1  0.59430000  0.99990000  0.39820000  1
  C  C161  1  0.81640000  0.81660000  0.66750000  1
  C  C162  1  0.73030000  0.73380000  0.58510000  1
  C  C163  1  0.68880000  0.68780000  0.63660000  1
  C  C164  1  0.75870000  0.76860000  0.71230000  1
  C  C165  1  0.70370000  0.70290000  0.69710000  1
  C  C166  1  0.54850000  0.07880000  0.40070000  1
  C  C167  1  0.76450000  0.23250000  0.71460000  1
  C  C168  1  0.54810000  0.91990000  0.40070000  1
  C  C169  1  0.69050000  0.31350000  0.63400000  1
  C  C170  1  0.73250000  0.26250000  0.58820000  1
  C  C171  1  0.79780000  0.20330000  0.60350000  1
  C  C172  1  0.65080000  0.65190000  0.74740000  1
  C  C173  1  0.81760000  0.18340000  0.66600000  1
  C  C174  1  0.85000000  0.07400000  0.67600000  1
  C  C175  1  0.89100000  0.93200000  0.70700000  1
  C  C176  1  0.67300000  0.74400000  0.51300000  1
  C  C177  1  0.66300000  0.68300000  0.41400000  1
  C  C178  1  0.99990000  0.30320000  0.39990000  1
  C  C179  1  0.99960000  0.40600000  0.39880000  1
  C  C180  1  0.07920000  0.45210000  0.39760000  1
  C  C181  1  0.92120000  0.45190000  0.40540000  1
  C  C182  1  0.82200000  0.41600000  0.44200000  1
  C  C183  1  0.72100000  0.33200000  0.49900000  1
  C  C184  1  0.58600000  0.35600000  0.61300000  1
  C  C185  1  0.44400000  0.40400000  0.58700000  1
  C  C186  1  0.15180000  0.84860000  0.24770000  1
  C  C187  1  0.29770000  0.29720000  0.10200000  1
  C  C188  1  0.34800000  0.34880000  0.05040000  1
  C  C189  1  0.20330000  0.79700000  0.19780000  1
  C  C190  1  0.34870000  0.65160000  0.05110000  1
  C  C191  1  0.19660000  0.49980000  0.89950000  1
  C  C192  1  0.09430000  0.49990000  0.89820000  1
  C  C193  1  0.31640000  0.31660000  0.16750000  1
  C  C194  1  0.23030000  0.23380000  0.08510000  1
  C  C195  1  0.18880000  0.18780000  0.13660000  1
  C  C196  1  0.25870000  0.26860000  0.21230000  1
  C  C197  1  0.20370000  0.20290000  0.19710000  1
  C  C198  1  0.04850000  0.57880000  0.90070000  1
  C  C199  1  0.26450000  0.73250000  0.21460000  1
  C  C200  1  0.04810000  0.41990000  0.90070000  1
  C  C201  1  0.19050000  0.81350000  0.13400000  1
  C  C202  1  0.23250000  0.76250000  0.08820000  1
  C  C203  1  0.29780000  0.70330000  0.10350000  1
  C  C204  1  0.15080000  0.15190000  0.24740000  1
  C  C205  1  0.31760000  0.68340000  0.16600000  1
  C  C206  1  0.49990000  0.80320000  0.89990000  1
  C  C207  1  0.49960000  0.90600000  0.89880000  1
  C  C208  1  0.57920000  0.95210000  0.89760000  1
  C  C209  1  0.42120000  0.95190000  0.90540000  1
  C  C210  1  0.67200000  0.90500000  0.86200000  1
  C  C211  1  0.80600000  0.90500000  0.80800000  1
  C  C212  1  0.42500000  0.33400000  0.19700000  1
  C  C213  1  0.49600000  0.35400000  0.29200000  1
  C  C214  1  0.08600000  0.85600000  0.11300000  1
  C  C215  1  0.94400000  0.90400000  0.08700000  1
  O  O216  1  0.88160000  0.00030000  0.45950000  1
  O  O217  1  0.13810000  0.00040000  0.33180000  1
  O  O218  1  0.00000000  0.88150000  0.45920000  1
  O  O219  1  0.00000000  0.86170000  0.33160000  1
  O  O220  1  0.09350000  0.09320000  0.57250000  1
  O  O221  1  0.40630000  0.59410000  0.72980000  1
  O  O222  1  0.32800000  0.67230000  0.80700000  1
  O  O223  1  0.09320000  0.90710000  0.57260000  1
  O  O224  1  0.17060000  0.82940000  0.49380000  1
  O  O225  1  0.17050000  0.17210000  0.49330000  1
  O  O226  1  0.26450000  0.07830000  0.39930000  1
  O  O227  1  0.26490000  0.92180000  0.40000000  1
  O  O228  1  0.32730000  0.32880000  0.80660000  1
  O  O229  1  0.40630000  0.40590000  0.73000000  1
  O  O230  1  0.49700000  0.77100000  0.45900000  1
  O  O231  1  0.45600000  0.68200000  0.46200000  1
  O  O232  1  0.35000000  0.79100000  0.48300000  1
  O  O233  1  0.08600000  0.92200000  0.72800000  1
  O  O234  1  0.03600000  0.00400000  0.71500000  1
  O  O235  1  0.18100000  0.01900000  0.67800000  1
  O  O236  1  0.38200000  0.23200000  0.41800000  1
  O  O237  1  0.30500000  0.33600000  0.47700000  1
  O  O238  1  0.32900000  0.18600000  0.46600000  1
  O  O239  1  0.92210000  0.73510000  0.40120000  1
  O  O240  1  0.07780000  0.73520000  0.39930000  1
  O  O241  1  0.97900000  0.15800000  0.68700000  1
  O  O242  1  0.94800000  0.19600000  0.74700000  1
  O  O243  1  0.41300000  0.59300000  0.55400000  1
  O  O244  1  0.48800000  0.53300000  0.56600000  1
  O  O245  1  0.50900000  0.66600000  0.62100000  1
  O  O246  1  0.38160000  0.50030000  0.95950000  1
  O  O247  1  0.63810000  0.50040000  0.83180000  1
  O  O248  1  0.50000000  0.38150000  0.95920000  1
  O  O249  1  0.50000000  0.36170000  0.83160000  1
  O  O250  1  0.59350000  0.59320000  0.07250000  1
  O  O251  1  0.90630000  0.09410000  0.22980000  1
  O  O252  1  0.82800000  0.17230000  0.30700000  1
  O  O253  1  0.59320000  0.40710000  0.07260000  1
  O  O254  1  0.67060000  0.32940000  0.99380000  1
  O  O255  1  0.67050000  0.67210000  0.99330000  1
  O  O256  1  0.76450000  0.57830000  0.89930000  1
  O  O257  1  0.76490000  0.42180000  0.90000000  1
  O  O258  1  0.82730000  0.82880000  0.30660000  1
  O  O259  1  0.90630000  0.90590000  0.23000000  1
  O  O260  1  0.99700000  0.27100000  0.95900000  1
  O  O261  1  0.95600000  0.18200000  0.96200000  1
  O  O262  1  0.85000000  0.29100000  0.98300000  1
  O  O263  1  0.42210000  0.23510000  0.90120000  1
  O  O264  1  0.57780000  0.23520000  0.89930000  1
  O  O265  1  0.85200000  0.70500000  0.81000000  1
  O  O266  1  0.88900000  0.79500000  0.80000000  1
  O  O267  1  0.93000000  0.74300000  0.89900000  1
  O  O268  1  0.47900000  0.65800000  0.18700000  1
  O  O269  1  0.44800000  0.69600000  0.24700000  1
  O  O270  1  0.58800000  0.63200000  0.26000000  1
  O  O271  1  0.91300000  0.09300000  0.05400000  1
  O  O272  1  0.98800000  0.03300000  0.06600000  1
  O  O273  1  0.00900000  0.16600000  0.12100000  1
  O  O274  1  0.11840000  0.99970000  0.45950000  1
  O  O275  1  0.86190000  0.99960000  0.33180000  1
  O  O276  1  0.00000000  0.11850000  0.45920000  1
  O  O277  1  0.00000000  0.13830000  0.33160000  1
  O  O278  1  0.90650000  0.90680000  0.57250000  1
  O  O279  1  0.59370000  0.40590000  0.72980000  1
  O  O280  1  0.67200000  0.32770000  0.80700000  1
  O  O281  1  0.90680000  0.09290000  0.57260000  1
  O  O282  1  0.82940000  0.17060000  0.49380000  1
  O  O283  1  0.82950000  0.82790000  0.49330000  1
  O  O284  1  0.73550000  0.92170000  0.39930000  1
  O  O285  1  0.73510000  0.07820000  0.40000000  1
  O  O286  1  0.67270000  0.67120000  0.80660000  1
  O  O287  1  0.59370000  0.59410000  0.73000000  1
  O  O288  1  0.91400000  0.07800000  0.72800000  1
  O  O289  1  0.96400000  0.99600000  0.71500000  1
  O  O290  1  0.81900000  0.98100000  0.67800000  1
  O  O291  1  0.61800000  0.76800000  0.41800000  1
  O  O292  1  0.69500000  0.66400000  0.47700000  1
  O  O293  1  0.67100000  0.81400000  0.46600000  1
  O  O294  1  0.07790000  0.26490000  0.40120000  1
  O  O295  1  0.92220000  0.26480000  0.39930000  1
  O  O296  1  0.73100000  0.44400000  0.42700000  1
  O  O297  1  0.68900000  0.42400000  0.48800000  1
  O  O298  1  0.80900000  0.32900000  0.47200000  1
  O  O299  1  0.58700000  0.40700000  0.55400000  1
  O  O300  1  0.51200000  0.46700000  0.56600000  1
  O  O301  1  0.49100000  0.33400000  0.62100000  1
  O  O302  1  0.61840000  0.49970000  0.95950000  1
  O  O303  1  0.36190000  0.49960000  0.83180000  1
  O  O304  1  0.50000000  0.61850000  0.95920000  1
  O  O305  1  0.50000000  0.63830000  0.83160000  1
  O  O306  1  0.40650000  0.40680000  0.07250000  1
  O  O307  1  0.09370000  0.90590000  0.22980000  1
  O  O308  1  0.17200000  0.82770000  0.30700000  1
  O  O309  1  0.40680000  0.59290000  0.07260000  1
  O  O310  1  0.32940000  0.67060000  0.99380000  1
  O  O311  1  0.32950000  0.32790000  0.99330000  1
  O  O312  1  0.23550000  0.42170000  0.89930000  1
  O  O313  1  0.23510000  0.57820000  0.90000000  1
  O  O314  1  0.17270000  0.17120000  0.30660000  1
  O  O315  1  0.09370000  0.09410000  0.23000000  1
  O  O316  1  0.57790000  0.76490000  0.90120000  1
  O  O317  1  0.42220000  0.76480000  0.89930000  1
  O  O318  1  0.65900000  0.87700000  0.79600000  1
  O  O319  1  0.74600000  0.83600000  0.78500000  1
  O  O320  1  0.76100000  0.94600000  0.86100000  1
  O  O321  1  0.52100000  0.34200000  0.18700000  1
  O  O322  1  0.55200000  0.30400000  0.24700000  1
  O  O323  1  0.41200000  0.36800000  0.26000000  1
  O  O324  1  0.08700000  0.90700000  0.05400000  1
  O  O325  1  0.01200000  0.96700000  0.06600000  1
  O  O326  1  0.99100000  0.83400000  0.12100000  1
