# generated using pymatgen
data_Zr3H36(C15O4)4
_symmetry_space_group_name_H-M   'P 1'
_cell_length_a   15.04730000
_cell_length_b   18.39562122
_cell_length_c   18.39562122
_cell_angle_alpha   112.86020535
_cell_angle_beta   105.82266755
_cell_angle_gamma   105.82266755
_symmetry_Int_Tables_number   1
_chemical_formula_structural   Zr3H36(C15O4)4
_chemical_formula_sum   'Zr6 H72 C120 O32'
_cell_volume   4081.95078379
_cell_formula_units_Z   2
loop_
 _symmetry_equiv_pos_site_id
 _symmetry_equiv_pos_as_xyz
  1  'x, y, z'
loop_
 _atom_site_type_symbol
 _atom_site_label
 _atom_site_symmetry_multiplicity
 _atom_site_fract_x
 _atom_site_fract_y
 _atom_site_fract_z
 _atom_site_occupancy
  C  C0  1  0.25928000  0.94563000  0.11221000  1
  C  C1  1  0.34613000  0.92779000  0.15150000  1
  C  C2  1  0.40736000  0.97645000  0.24033000  1
  C  C3  1  0.49115000  0.96311000  0.27584000  1
  C  C4  1  0.51819000  0.90411000  0.22366000  1
  C  C5  1  0.45450000  0.85530000  0.13600000  1
  C  C6  1  0.36760000  0.86560000  0.10020000  1
  C  C7  1  0.61427000  0.89646000  0.26005000  1
  C  C8  1  0.64907000  0.90505000  0.34236000  1
  C  C9  1  0.74080000  0.90160000  0.37860000  1
  C  C10  1  0.79800000  0.88888000  0.33102000  1
  C  C11  1  0.76380000  0.87989000  0.24851000  1
  C  C12  1  0.67273000  0.88396000  0.21423000  1
  C  C13  1  0.77730000  0.91321000  0.46839000  1
  C  C14  1  0.71170000  0.87582000  0.49588000  1
  C  C15  1  0.74640000  0.88642000  0.57918000  1
  C  C16  1  0.84861000  0.93523000  0.63600000  1
  C  C17  1  0.91450000  0.97424000  0.60956000  1
  C  C18  1  0.87920000  0.96378000  0.52672000  1
  C  C19  1  0.88696000  0.94698000  0.72550000  1
  C  C20  1  0.14707000  0.88779000  0.83342000  1
  C  C21  1  0.19463000  0.84850000  0.77629000  1
  C  C22  1  0.16703000  0.75967000  0.73612000  1
  C  C23  1  0.21531000  0.72416000  0.68727000  1
  C  C24  1  0.29453000  0.77634000  0.68045000  1
  C  C25  1  0.31850000  0.86400000  0.71930000  1
  C  C26  1  0.26740000  0.89980000  0.76540000  1
  C  C27  1  0.35422000  0.73995000  0.63641000  1
  C  C28  1  0.30671000  0.65764000  0.56269000  1
  C  C29  1  0.36220000  0.62140000  0.52300000  1
  C  C30  1  0.46698000  0.66898000  0.55786000  1
  C  C31  1  0.51529000  0.75149000  0.63138000  1
  C  C32  1  0.45850000  0.78577000  0.66973000  1
  C  C33  1  0.30891000  0.53161000  0.44482000  1
  C  C34  1  0.21582000  0.50412000  0.37994000  1
  C  C35  1  0.16722000  0.42082000  0.30724000  1
  C  C36  1  0.21261000  0.36400000  0.29923000  1
  C  C37  1  0.30494000  0.39044000  0.36468000  1
  C  C38  1  0.35248000  0.47328000  0.43706000  1
  C  C39  1  0.16146000  0.27450000  0.22148000  1
  C  C40  1  0.31365000  0.16658000  0.05437000  1
  C  C41  1  0.41834000  0.22371000  0.07221000  1
  C  C42  1  0.43091000  0.26388000  0.02355000  1
  C  C43  1  0.52804000  0.31273000  0.03689000  1
  C  C44  1  0.61408000  0.31955000  0.09589000  1
  C  C45  1  0.59920000  0.28070000  0.14470000  1
  C  C46  1  0.50200000  0.23460000  0.13440000  1
  C  C47  1  0.71781000  0.36359000  0.10354000  1
  C  C48  1  0.74402000  0.43731000  0.09495000  1
  C  C49  1  0.83920000  0.47700000  0.09840000  1
  C  C50  1  0.90912000  0.44214000  0.11112000  1
  C  C51  1  0.88391000  0.36862000  0.12011000  1
  C  C52  1  0.78877000  0.33027000  0.11604000  1
  C  C53  1  0.86409000  0.55518000  0.08679000  1
  C  C54  1  0.83588000  0.62006000  0.12418000  1
  C  C55  1  0.85998000  0.69276000  0.11358000  1
  C  C56  1  0.91338000  0.70077000  0.06477000  1
  C  C57  1  0.94026000  0.63532000  0.02576000  1
  C  C58  1  0.91542000  0.56294000  0.03622000  1
  C  C59  1  0.93998000  0.77852000  0.05302000  1
  C  C60  1  0.74072000  0.05437000  0.88779000  1
  C  C61  1  0.65387000  0.07221000  0.84850000  1
  C  C62  1  0.59264000  0.02355000  0.75967000  1
  C  C63  1  0.50885000  0.03689000  0.72416000  1
  C  C64  1  0.48181000  0.09589000  0.77634000  1
  C  C65  1  0.54550000  0.14470000  0.86400000  1
  C  C66  1  0.63240000  0.13440000  0.89980000  1
  C  C67  1  0.38573000  0.10354000  0.73995000  1
  C  C68  1  0.35093000  0.09495000  0.65764000  1
  C  C69  1  0.25920000  0.09840000  0.62140000  1
  C  C70  1  0.20200000  0.11112000  0.66898000  1
  C  C71  1  0.23620000  0.12011000  0.75149000  1
  C  C72  1  0.32727000  0.11604000  0.78577000  1
  C  C73  1  0.22270000  0.08679000  0.53161000  1
  C  C74  1  0.28830000  0.12418000  0.50412000  1
  C  C75  1  0.25360000  0.11358000  0.42082000  1
  C  C76  1  0.15139000  0.06477000  0.36400000  1
  C  C77  1  0.08550000  0.02576000  0.39044000  1
  C  C78  1  0.12080000  0.03622000  0.47328000  1
  C  C79  1  0.11304000  0.05302000  0.27450000  1
  C  C80  1  0.85293000  0.11221000  0.16658000  1
  C  C81  1  0.80537000  0.15150000  0.22371000  1
  C  C82  1  0.83297000  0.24033000  0.26388000  1
  C  C83  1  0.78469000  0.27584000  0.31273000  1
  C  C84  1  0.70547000  0.22366000  0.31955000  1
  C  C85  1  0.68150000  0.13600000  0.28070000  1
  C  C86  1  0.73260000  0.10020000  0.23460000  1
  C  C87  1  0.64578000  0.26005000  0.36359000  1
  C  C88  1  0.69329000  0.34236000  0.43731000  1
  C  C89  1  0.63780000  0.37860000  0.47700000  1
  C  C90  1  0.53302000  0.33102000  0.44214000  1
  C  C91  1  0.48471000  0.24851000  0.36862000  1
  C  C92  1  0.54150000  0.21423000  0.33027000  1
  C  C93  1  0.69109000  0.46839000  0.55518000  1
  C  C94  1  0.78418000  0.49588000  0.62006000  1
  C  C95  1  0.83278000  0.57918000  0.69276000  1
  C  C96  1  0.78739000  0.63600000  0.70077000  1
  C  C97  1  0.69506000  0.60956000  0.63532000  1
  C  C98  1  0.64752000  0.52672000  0.56294000  1
  C  C99  1  0.83854000  0.72550000  0.77852000  1
  C  C100  1  0.68635000  0.83342000  0.94563000  1
  C  C101  1  0.58166000  0.77629000  0.92779000  1
  C  C102  1  0.56909000  0.73612000  0.97645000  1
  C  C103  1  0.47196000  0.68727000  0.96311000  1
  C  C104  1  0.38592000  0.68045000  0.90411000  1
  C  C105  1  0.40080000  0.71930000  0.85530000  1
  C  C106  1  0.49800000  0.76540000  0.86560000  1
  C  C107  1  0.28219000  0.63641000  0.89646000  1
  C  C108  1  0.25598000  0.56269000  0.90505000  1
  C  C109  1  0.16080000  0.52300000  0.90160000  1
  C  C110  1  0.09088000  0.55786000  0.88888000  1
  C  C111  1  0.11609000  0.63138000  0.87989000  1
  C  C112  1  0.21123000  0.66973000  0.88396000  1
  C  C113  1  0.13591000  0.44482000  0.91321000  1
  C  C114  1  0.16412000  0.37994000  0.87582000  1
  C  C115  1  0.14002000  0.30724000  0.88642000  1
  C  C116  1  0.08662000  0.29923000  0.93523000  1
  C  C117  1  0.05974000  0.36468000  0.97424000  1
  C  C118  1  0.08458000  0.43706000  0.96378000  1
  C  C119  1  0.06002000  0.22148000  0.94698000  1
  H  H120  1  0.39230000  0.01820000  0.27640000  1
  H  H121  1  0.52990000  0.99440000  0.33590000  1
  H  H122  1  0.46970000  0.81390000  0.09940000  1
  H  H123  1  0.32440000  0.82960000  0.04110000  1
  H  H124  1  0.61020000  0.91320000  0.37390000  1
  H  H125  1  0.85950000  0.88640000  0.35450000  1
  H  H126  1  0.80220000  0.87130000  0.21660000  1
  H  H127  1  0.65020000  0.87810000  0.15910000  1
  H  H128  1  0.64270000  0.84270000  0.45820000  1
  H  H129  1  0.70060000  0.86060000  0.59660000  1
  H  H130  1  0.98330000  0.00790000  0.64760000  1
  H  H131  1  0.92480000  0.99130000  0.51000000  1
  H  H132  1  0.11590000  0.72360000  0.74180000  1
  H  H133  1  0.19400000  0.66410000  0.65850000  1
  H  H134  1  0.37030000  0.90060000  0.71450000  1
  H  H135  1  0.28330000  0.95890000  0.78850000  1
  H  H136  1  0.23630000  0.62610000  0.53930000  1
  H  H137  1  0.50500000  0.64550000  0.53190000  1
  H  H138  1  0.58560000  0.78340000  0.65470000  1
  H  H139  1  0.49110000  0.84090000  0.71900000  1
  H  H140  1  0.18450000  0.54180000  0.38450000  1
  H  H141  1  0.10400000  0.40340000  0.26400000  1
  H  H142  1  0.33570000  0.35240000  0.36030000  1
  H  H143  1  0.41480000  0.49000000  0.48130000  1
  H  H144  1  0.37410000  0.25820000  0.98180000  1
  H  H145  1  0.53550000  0.34150000  0.00560000  1
  H  H146  1  0.65580000  0.28550000  0.18610000  1
  H  H147  1  0.49480000  0.21150000  0.17040000  1
  H  H148  1  0.69700000  0.46070000  0.08680000  1
  H  H149  1  0.97310000  0.46810000  0.11360000  1
  H  H150  1  0.93090000  0.34530000  0.12870000  1
  H  H151  1  0.77210000  0.28100000  0.12190000  1
  H  H152  1  0.80000000  0.61550000  0.15730000  1
  H  H153  1  0.84000000  0.73600000  0.13940000  1
  H  H154  1  0.97540000  0.63970000  0.99210000  1
  H  H155  1  0.93350000  0.51870000  0.00870000  1
  H  H156  1  0.60770000  0.98180000  0.72360000  1
  H  H157  1  0.47010000  0.00560000  0.66410000  1
  H  H158  1  0.53030000  0.18610000  0.90060000  1
  H  H159  1  0.67560000  0.17040000  0.95890000  1
  H  H160  1  0.38980000  0.08680000  0.62610000  1
  H  H161  1  0.14050000  0.11360000  0.64550000  1
  H  H162  1  0.19780000  0.12870000  0.78340000  1
  H  H163  1  0.34980000  0.12190000  0.84090000  1
  H  H164  1  0.35730000  0.15730000  0.54180000  1
  H  H165  1  0.29940000  0.13940000  0.40340000  1
  H  H166  1  0.01670000  0.99210000  0.35240000  1
  H  H167  1  0.07520000  0.00870000  0.49000000  1
  H  H168  1  0.88410000  0.27640000  0.25820000  1
  H  H169  1  0.80600000  0.33590000  0.34150000  1
  H  H170  1  0.62970000  0.09940000  0.28550000  1
  H  H171  1  0.71670000  0.04110000  0.21150000  1
  H  H172  1  0.76370000  0.37390000  0.46070000  1
  H  H173  1  0.49500000  0.35450000  0.46810000  1
  H  H174  1  0.41440000  0.21660000  0.34530000  1
  H  H175  1  0.50890000  0.15910000  0.28100000  1
  H  H176  1  0.81550000  0.45820000  0.61550000  1
  H  H177  1  0.89600000  0.59660000  0.73600000  1
  H  H178  1  0.66430000  0.64760000  0.63970000  1
  H  H179  1  0.58520000  0.51000000  0.51870000  1
  H  H180  1  0.62590000  0.74180000  0.01820000  1
  H  H181  1  0.46450000  0.65850000  0.99440000  1
  H  H182  1  0.34420000  0.71450000  0.81390000  1
  H  H183  1  0.50520000  0.78850000  0.82960000  1
  H  H184  1  0.30300000  0.53930000  0.91320000  1
  H  H185  1  0.02690000  0.53190000  0.88640000  1
  H  H186  1  0.06910000  0.65470000  0.87130000  1
  H  H187  1  0.22790000  0.71900000  0.87810000  1
  H  H188  1  0.20000000  0.38450000  0.84270000  1
  H  H189  1  0.16000000  0.26400000  0.86060000  1
  H  H190  1  0.02460000  0.36030000  0.00790000  1
  H  H191  1  0.06650000  0.48130000  0.99130000  1
  O  O192  1  0.26825000  0.02250000  0.15369000  1
  O  O193  1  0.18607000  0.88320000  0.04042000  1
  O  O194  1  0.82078000  0.90858000  0.74518000  1
  O  O195  1  0.98297000  0.99365000  0.77366000  1
  O  O196  1  0.10383000  0.12838000  0.04271000  1
  O  O197  1  0.14080000  0.00000000  0.00000000  1
  O  O198  1  0.11456000  0.84631000  0.86881000  1
  O  O199  1  0.14565000  0.95958000  0.84278000  1
  O  O200  1  0.07560000  0.25482000  0.16340000  1
  O  O201  1  0.20931000  0.22634000  0.21999000  1
  O  O202  1  0.06112000  0.95729000  0.08567000  1
  O  O203  1  0.24575000  0.13119000  0.97750000  1
  O  O204  1  0.30287000  0.15722000  0.11680000  1
  O  O205  1  0.91220000  0.83660000  0.09142000  1
  O  O206  1  0.98932000  0.78001000  0.00635000  1
  O  O207  1  0.97545000  0.91433000  0.87162000  1
  O  O208  1  0.73175000  0.97750000  0.84631000  1
  O  O209  1  0.81393000  0.11680000  0.95958000  1
  O  O210  1  0.17922000  0.09142000  0.25482000  1
  O  O211  1  0.01703000  0.00635000  0.22634000  1
  O  O212  1  0.89617000  0.87162000  0.95729000  1
  O  O213  1  0.85920000  0.00000000  0.00000000  1
  O  O214  1  0.88544000  0.15369000  0.13119000  1
  O  O215  1  0.85435000  0.04042000  0.15722000  1
  O  O216  1  0.92440000  0.74518000  0.83660000  1
  O  O217  1  0.79069000  0.77366000  0.78001000  1
  O  O218  1  0.93888000  0.04271000  0.91433000  1
  O  O219  1  0.75425000  0.86881000  0.02250000  1
  O  O220  1  0.69713000  0.84278000  0.88320000  1
  O  O221  1  0.08780000  0.16340000  0.90858000  1
  O  O222  1  0.01068000  0.21999000  0.99365000  1
  O  O223  1  0.02455000  0.08567000  0.12838000  1
  Zr  Zr224  1  0.16677000  0.08641000  0.12941000  1
  Zr  Zr225  1  0.03736000  0.87059000  0.95700000  1
  Zr  Zr226  1  0.08036000  0.04300000  0.91359000  1
  Zr  Zr227  1  0.83323000  0.91359000  0.87059000  1
  Zr  Zr228  1  0.96264000  0.12941000  0.04300000  1
  Zr  Zr229  1  0.91964000  0.95700000  0.08641000  1
