# generated using pymatgen
data_Zr3H36(C15O4)4
_symmetry_space_group_name_H-M   'P 1'
_cell_length_a   14.90160000
_cell_length_b   18.35436848
_cell_length_c   18.35436848
_cell_angle_alpha   112.96327282
_cell_angle_beta   105.70162036
_cell_angle_gamma   105.70162036
_symmetry_Int_Tables_number   1
_chemical_formula_structural   Zr3H36(C15O4)4
_chemical_formula_sum   'Zr6 H72 C120 O32'
_cell_volume   4029.11828751
_cell_formula_units_Z   2
loop_
 _symmetry_equiv_pos_site_id
 _symmetry_equiv_pos_as_xyz
  1  'x, y, z'
loop_
 _atom_site_type_symbol
 _atom_site_label
 _atom_site_symmetry_multiplicity
 _atom_site_fract_x
 _atom_site_fract_y
 _atom_site_fract_z
 _atom_site_occupancy
  C  C0  1  0.31536000  0.05165000  0.16582000  1
  C  C1  1  0.42020000  0.06850000  0.22220000  1
  C  C2  1  0.43452000  0.02485000  0.26681000  1
  C  C3  1  0.53265000  0.03840000  0.31575000  1
  C  C4  1  0.61803000  0.09379000  0.31820000  1
  C  C5  1  0.60303000  0.13879000  0.27440000  1
  C  C6  1  0.50402000  0.12665000  0.22771000  1
  C  C7  1  0.72350000  0.10407000  0.36393000  1
  C  C8  1  0.75123000  0.09915000  0.44004000  1
  C  C9  1  0.84867000  0.10557000  0.48204000  1
  C  C10  1  0.91880000  0.11792000  0.44668000  1
  C  C11  1  0.89198000  0.12213000  0.37041000  1
  C  C12  1  0.79608000  0.11599000  0.33005000  1
  C  C13  1  0.87532000  0.09654000  0.56112000  1
  C  C14  1  0.84504000  0.13279000  0.62483000  1
  C  C15  1  0.86848000  0.12123000  0.69741000  1
  C  C16  1  0.92330000  0.07403000  0.70675000  1
  C  C17  1  0.95371000  0.03829000  0.64364000  1
  C  C18  1  0.92981000  0.05007000  0.57156000  1
  C  C19  1  0.94677000  0.06059000  0.78304000  1
  C  C20  1  0.14954000  0.83418000  0.88583000  1
  C  C21  1  0.19800000  0.77780000  0.84630000  1
  C  C22  1  0.16771000  0.73319000  0.75804000  1
  C  C23  1  0.21690000  0.68425000  0.72265000  1
  C  C24  1  0.29983000  0.68180000  0.77559000  1
  C  C25  1  0.32863000  0.72560000  0.86439000  1
  C  C26  1  0.27631000  0.77229000  0.89894000  1
  C  C27  1  0.35957000  0.63607000  0.74014000  1
  C  C28  1  0.31119000  0.55996000  0.65911000  1
  C  C29  1  0.36663000  0.51796000  0.62353000  1
  C  C30  1  0.47212000  0.55332000  0.67124000  1
  C  C31  1  0.52157000  0.62959000  0.75172000  1
  C  C32  1  0.46603000  0.66995000  0.78594000  1
  C  C33  1  0.31420000  0.43888000  0.53542000  1
  C  C34  1  0.22021000  0.37517000  0.50796000  1
  C  C35  1  0.17107000  0.30259000  0.42382000  1
  C  C36  1  0.21655000  0.29325000  0.36728000  1
  C  C37  1  0.31007000  0.35636000  0.39465000  1
  C  C38  1  0.35825000  0.42844000  0.47851000  1
  C  C39  1  0.16373000  0.21696000  0.27755000  1
  C  C40  1  0.26371000  0.11417000  0.94835000  1
  C  C41  1  0.35170000  0.15370000  0.93150000  1
  C  C42  1  0.40967000  0.24196000  0.97515000  1
  C  C43  1  0.49425000  0.27735000  0.96160000  1
  C  C44  1  0.52424000  0.22441000  0.90621000  1
  C  C45  1  0.46424000  0.13561000  0.86121000  1
  C  C46  1  0.37737000  0.10106000  0.87335000  1
  C  C47  1  0.61943000  0.25986000  0.89593000  1
  C  C48  1  0.65208000  0.34089000  0.90085000  1
  C  C49  1  0.74310000  0.37647000  0.89443000  1
  C  C50  1  0.80088000  0.32876000  0.88208000  1
  C  C51  1  0.76985000  0.24828000  0.87787000  1
  C  C52  1  0.68009000  0.21406000  0.88401000  1
  C  C53  1  0.77878000  0.46458000  0.90346000  1
  C  C54  1  0.71225000  0.49204000  0.86721000  1
  C  C55  1  0.74725000  0.57618000  0.87877000  1
  C  C56  1  0.84927000  0.63272000  0.92597000  1
  C  C57  1  0.91542000  0.60535000  0.96171000  1
  C  C58  1  0.87974000  0.52149000  0.94993000  1
  C  C59  1  0.88618000  0.72245000  0.93941000  1
  C  C60  1  0.68464000  0.94835000  0.83418000  1
  C  C61  1  0.57980000  0.93150000  0.77780000  1
  C  C62  1  0.56548000  0.97515000  0.73319000  1
  C  C63  1  0.46735000  0.96160000  0.68425000  1
  C  C64  1  0.38197000  0.90621000  0.68180000  1
  C  C65  1  0.39697000  0.86121000  0.72560000  1
  C  C66  1  0.49598000  0.87335000  0.77229000  1
  C  C67  1  0.27650000  0.89593000  0.63607000  1
  C  C68  1  0.24877000  0.90085000  0.55996000  1
  C  C69  1  0.15133000  0.89443000  0.51796000  1
  C  C70  1  0.08120000  0.88208000  0.55332000  1
  C  C71  1  0.10802000  0.87787000  0.62959000  1
  C  C72  1  0.20392000  0.88401000  0.66995000  1
  C  C73  1  0.12468000  0.90346000  0.43888000  1
  C  C74  1  0.15496000  0.86721000  0.37517000  1
  C  C75  1  0.13152000  0.87877000  0.30259000  1
  C  C76  1  0.07670000  0.92597000  0.29325000  1
  C  C77  1  0.04629000  0.96171000  0.35636000  1
  C  C78  1  0.07019000  0.94993000  0.42844000  1
  C  C79  1  0.05323000  0.93941000  0.21696000  1
  C  C80  1  0.85046000  0.16582000  0.11417000  1
  C  C81  1  0.80200000  0.22220000  0.15370000  1
  C  C82  1  0.83229000  0.26681000  0.24196000  1
  C  C83  1  0.78310000  0.31575000  0.27735000  1
  C  C84  1  0.70017000  0.31820000  0.22441000  1
  C  C85  1  0.67137000  0.27440000  0.13561000  1
  C  C86  1  0.72369000  0.22771000  0.10106000  1
  C  C87  1  0.64043000  0.36393000  0.25986000  1
  C  C88  1  0.68881000  0.44004000  0.34089000  1
  C  C89  1  0.63337000  0.48204000  0.37647000  1
  C  C90  1  0.52788000  0.44668000  0.32876000  1
  C  C91  1  0.47843000  0.37041000  0.24828000  1
  C  C92  1  0.53397000  0.33005000  0.21406000  1
  C  C93  1  0.68580000  0.56112000  0.46458000  1
  C  C94  1  0.77979000  0.62483000  0.49204000  1
  C  C95  1  0.82893000  0.69741000  0.57618000  1
  C  C96  1  0.78345000  0.70675000  0.63272000  1
  C  C97  1  0.68993000  0.64364000  0.60535000  1
  C  C98  1  0.64175000  0.57156000  0.52149000  1
  C  C99  1  0.83627000  0.78304000  0.72245000  1
  C  C100  1  0.73629000  0.88583000  0.05165000  1
  C  C101  1  0.64830000  0.84630000  0.06850000  1
  C  C102  1  0.59033000  0.75804000  0.02485000  1
  C  C103  1  0.50575000  0.72265000  0.03840000  1
  C  C104  1  0.47576000  0.77559000  0.09379000  1
  C  C105  1  0.53576000  0.86439000  0.13879000  1
  C  C106  1  0.62263000  0.89894000  0.12665000  1
  C  C107  1  0.38057000  0.74014000  0.10407000  1
  C  C108  1  0.34792000  0.65911000  0.09915000  1
  C  C109  1  0.25690000  0.62353000  0.10557000  1
  C  C110  1  0.19912000  0.67124000  0.11792000  1
  C  C111  1  0.23015000  0.75172000  0.12213000  1
  C  C112  1  0.31991000  0.78594000  0.11599000  1
  C  C113  1  0.22122000  0.53542000  0.09654000  1
  C  C114  1  0.28775000  0.50796000  0.13279000  1
  C  C115  1  0.25275000  0.42382000  0.12123000  1
  C  C116  1  0.15073000  0.36728000  0.07403000  1
  C  C117  1  0.08458000  0.39465000  0.03829000  1
  C  C118  1  0.12026000  0.47851000  0.05007000  1
  C  C119  1  0.11382000  0.27755000  0.06059000  1
  H  H120  1  0.37760000  0.98550000  0.26440000  1
  H  H121  1  0.54080000  0.00970000  0.34730000  1
  H  H122  1  0.65950000  0.17770000  0.27590000  1
  H  H123  1  0.49550000  0.15900000  0.20010000  1
  H  H124  1  0.70380000  0.09150000  0.46350000  1
  H  H125  1  0.98460000  0.12350000  0.47440000  1
  H  H126  1  0.93920000  0.12920000  0.34660000  1
  H  H127  1  0.77910000  0.11980000  0.27950000  1
  H  H128  1  0.80830000  0.16570000  0.62000000  1
  H  H129  1  0.84660000  0.14590000  0.74000000  1
  H  H130  1  0.99090000  0.00580000  0.64850000  1
  H  H131  1  0.95190000  0.02530000  0.52910000  1
  H  H132  1  0.11320000  0.73560000  0.72110000  1
  H  H133  1  0.19350000  0.65270000  0.66240000  1
  H  H134  1  0.38360000  0.72410000  0.90180000  1
  H  H135  1  0.29540000  0.79990000  0.95890000  1
  H  H136  1  0.24030000  0.53650000  0.62800000  1
  H  H137  1  0.51020000  0.52560000  0.64910000  1
  H  H138  1  0.59260000  0.65340000  0.78260000  1
  H  H139  1  0.49960000  0.72050000  0.84030000  1
  H  H140  1  0.18830000  0.38000000  0.54570000  1
  H  H141  1  0.10660000  0.26000000  0.40590000  1
  H  H142  1  0.34240000  0.35150000  0.35730000  1
  H  H143  1  0.42280000  0.47090000  0.49620000  1
  H  H144  1  0.39210000  0.27890000  0.01450000  1
  H  H145  1  0.53110000  0.33760000  0.99030000  1
  H  H146  1  0.48180000  0.09820000  0.82230000  1
  H  H147  1  0.33650000  0.04110000  0.84100000  1
  H  H148  1  0.61230000  0.37200000  0.90850000  1
  H  H149  1  0.86110000  0.35090000  0.87650000  1
  H  H150  1  0.81000000  0.21740000  0.87080000  1
  H  H151  1  0.65930000  0.15970000  0.88020000  1
  H  H152  1  0.64260000  0.45430000  0.83430000  1
  H  H153  1  0.70070000  0.59410000  0.85410000  1
  H  H154  1  0.98510000  0.64270000  0.99420000  1
  H  H155  1  0.92660000  0.50380000  0.97470000  1
  H  H156  1  0.62240000  0.01450000  0.73560000  1
  H  H157  1  0.45920000  0.99030000  0.65270000  1
  H  H158  1  0.34050000  0.82230000  0.72410000  1
  H  H159  1  0.50450000  0.84100000  0.79990000  1
  H  H160  1  0.29620000  0.90850000  0.53650000  1
  H  H161  1  0.01540000  0.87650000  0.52560000  1
  H  H162  1  0.06080000  0.87080000  0.65340000  1
  H  H163  1  0.22090000  0.88020000  0.72050000  1
  H  H164  1  0.19170000  0.83430000  0.38000000  1
  H  H165  1  0.15340000  0.85410000  0.26000000  1
  H  H166  1  0.00910000  0.99420000  0.35150000  1
  H  H167  1  0.04810000  0.97470000  0.47090000  1
  H  H168  1  0.88680000  0.26440000  0.27890000  1
  H  H169  1  0.80650000  0.34730000  0.33760000  1
  H  H170  1  0.61640000  0.27590000  0.09820000  1
  H  H171  1  0.70460000  0.20010000  0.04110000  1
  H  H172  1  0.75970000  0.46350000  0.37200000  1
  H  H173  1  0.48980000  0.47440000  0.35090000  1
  H  H174  1  0.40740000  0.34660000  0.21740000  1
  H  H175  1  0.50040000  0.27950000  0.15970000  1
  H  H176  1  0.81170000  0.62000000  0.45430000  1
  H  H177  1  0.89340000  0.74000000  0.59410000  1
  H  H178  1  0.65760000  0.64850000  0.64270000  1
  H  H179  1  0.57720000  0.52910000  0.50380000  1
  H  H180  1  0.60790000  0.72110000  0.98550000  1
  H  H181  1  0.46890000  0.66240000  0.00970000  1
  H  H182  1  0.51820000  0.90180000  0.17770000  1
  H  H183  1  0.66350000  0.95890000  0.15900000  1
  H  H184  1  0.38770000  0.62800000  0.09150000  1
  H  H185  1  0.13890000  0.64910000  0.12350000  1
  H  H186  1  0.19000000  0.78260000  0.12920000  1
  H  H187  1  0.34070000  0.84030000  0.11980000  1
  H  H188  1  0.35740000  0.54570000  0.16570000  1
  H  H189  1  0.29930000  0.40590000  0.14590000  1
  H  H190  1  0.01490000  0.35730000  0.00580000  1
  H  H191  1  0.07340000  0.49620000  0.02530000  1
  O  O192  1  0.30461000  0.11377000  0.15641000  1
  O  O193  1  0.24546000  0.97495000  0.13077000  1
  O  O194  1  0.91795000  0.09629000  0.84091000  1
  O  O195  1  0.99390000  0.01236000  0.78435000  1
  O  O196  1  0.06296000  0.08746000  0.96033000  1
  O  O197  1  0.14170000  0.00000000  0.00000000  1
  O  O198  1  0.14820000  0.84359000  0.95736000  1
  O  O199  1  0.11469000  0.86923000  0.84418000  1
  O  O200  1  0.07704000  0.15909000  0.25538000  1
  O  O201  1  0.20955000  0.21565000  0.22801000  1
  O  O202  1  0.10263000  0.03967000  0.12713000  1
  O  O203  1  0.19084000  0.04264000  0.88623000  1
  O  O204  1  0.27051000  0.15582000  0.02505000  1
  O  O205  1  0.82166000  0.74462000  0.90371000  1
  O  O206  1  0.98154000  0.77199000  0.98764000  1
  O  O207  1  0.97550000  0.87287000  0.91254000  1
  O  O208  1  0.69539000  0.88623000  0.84359000  1
  O  O209  1  0.75454000  0.02505000  0.86923000  1
  O  O210  1  0.08205000  0.90371000  0.15909000  1
  O  O211  1  0.00610000  0.98764000  0.21565000  1
  O  O212  1  0.93704000  0.91254000  0.03967000  1
  O  O213  1  0.85830000  0.00000000  0.00000000  1
  O  O214  1  0.85180000  0.15641000  0.04264000  1
  O  O215  1  0.88531000  0.13077000  0.15582000  1
  O  O216  1  0.92296000  0.84091000  0.74462000  1
  O  O217  1  0.79045000  0.78435000  0.77199000  1
  O  O218  1  0.89737000  0.96033000  0.87287000  1
  O  O219  1  0.80916000  0.95736000  0.11377000  1
  O  O220  1  0.72949000  0.84418000  0.97495000  1
  O  O221  1  0.17834000  0.25538000  0.09629000  1
  O  O222  1  0.01846000  0.22801000  0.01236000  1
  O  O223  1  0.02450000  0.12713000  0.08746000  1
  Zr  Zr224  1  0.16895000  0.12958000  0.08897000  1
  Zr  Zr225  1  0.07998000  0.91103000  0.04061000  1
  Zr  Zr226  1  0.03937000  0.95939000  0.87042000  1
  Zr  Zr227  1  0.83105000  0.87042000  0.91103000  1
  Zr  Zr228  1  0.92002000  0.08897000  0.95939000  1
  Zr  Zr229  1  0.96063000  0.04061000  0.12958000  1
