# generated using pymatgen
data_Zr3H36(C15O4)4
_symmetry_space_group_name_H-M   'P 1'
_cell_length_a   14.78240000
_cell_length_b   18.14164513
_cell_length_c   18.14164513
_cell_angle_alpha   112.91352333
_cell_angle_beta   105.76014108
_cell_angle_gamma   105.76014108
_symmetry_Int_Tables_number   1
_chemical_formula_structural   Zr3H36(C15O4)4
_chemical_formula_sum   'Zr6 H72 C120 O32'
_cell_volume   3902.53334992
_cell_formula_units_Z   2
loop_
 _symmetry_equiv_pos_site_id
 _symmetry_equiv_pos_as_xyz
  1  'x, y, z'
loop_
 _atom_site_type_symbol
 _atom_site_label
 _atom_site_symmetry_multiplicity
 _atom_site_fract_x
 _atom_site_fract_y
 _atom_site_fract_z
 _atom_site_occupancy
  C  C0  1  0.26479000  0.94559000  0.11348000  1
  C  C1  1  0.35472000  0.92739000  0.14977000  1
  C  C2  1  0.40949000  0.96435000  0.23992000  1
  C  C3  1  0.49423000  0.94862000  0.27257000  1
  C  C4  1  0.52843000  0.89865000  0.21574000  1
  C  C5  1  0.47243000  0.86242000  0.12507000  1
  C  C6  1  0.38583000  0.87526000  0.09273000  1
  C  C7  1  0.62323000  0.88621000  0.24918000  1
  C  C8  1  0.65522000  0.88681000  0.32925000  1
  C  C9  1  0.74624000  0.87793000  0.36279000  1
  C  C10  1  0.80516000  0.86730000  0.31468000  1
  C  C11  1  0.77515000  0.86793000  0.23542000  1
  C  C12  1  0.68505000  0.87699000  0.20326000  1
  C  C13  1  0.78197000  0.88656000  0.45205000  1
  C  C14  1  0.71241000  0.85597000  0.48246000  1
  C  C15  1  0.74677000  0.87137000  0.56894000  1
  C  C16  1  0.85038000  0.91787000  0.62567000  1
  C  C17  1  0.92090000  0.94077000  0.59353000  1
  C  C18  1  0.88650000  0.92394000  0.50686000  1
  C  C19  1  0.88711000  0.93812000  0.71981000  1
  C  C20  1  0.15131000  0.88652000  0.83211000  1
  C  C21  1  0.20495000  0.85023000  0.77762000  1
  C  C22  1  0.16957000  0.76008000  0.72443000  1
  C  C23  1  0.22166000  0.72743000  0.67605000  1
  C  C24  1  0.31269000  0.78426000  0.68291000  1
  C  C25  1  0.34736000  0.87493000  0.73735000  1
  C  C26  1  0.29310000  0.90727000  0.78253000  1
  C  C27  1  0.37405000  0.75082000  0.63703000  1
  C  C28  1  0.32597000  0.67075000  0.55756000  1
  C  C29  1  0.38345000  0.63721000  0.51514000  1
  C  C30  1  0.49048000  0.68532000  0.55262000  1
  C  C31  1  0.53973000  0.76458000  0.63251000  1
  C  C32  1  0.48179000  0.79674000  0.67373000  1
  C  C33  1  0.32992000  0.54795000  0.43451000  1
  C  C34  1  0.22995000  0.51754000  0.37351000  1
  C  C35  1  0.17783000  0.43106000  0.30243000  1
  C  C36  1  0.22471000  0.37433000  0.29220000  1
  C  C37  1  0.32737000  0.40647000  0.34724000  1
  C  C38  1  0.37964000  0.49314000  0.41708000  1
  C  C39  1  0.16730000  0.28019000  0.21831000  1
  C  C40  1  0.31920000  0.16789000  0.05441000  1
  C  C41  1  0.42733000  0.22238000  0.07261000  1
  C  C42  1  0.44514000  0.27557000  0.03565000  1
  C  C43  1  0.54561000  0.32395000  0.05138000  1
  C  C44  1  0.62978000  0.31709000  0.10135000  1
  C  C45  1  0.61001000  0.26265000  0.13758000  1
  C  C46  1  0.51057000  0.21747000  0.12474000  1
  C  C47  1  0.73702000  0.36297000  0.11379000  1
  C  C48  1  0.76841000  0.44244000  0.11319000  1
  C  C49  1  0.86831000  0.48486000  0.12207000  1
  C  C50  1  0.93786000  0.44738000  0.13270000  1
  C  C51  1  0.90722000  0.36749000  0.13207000  1
  C  C52  1  0.80806000  0.32627000  0.12301000  1
  C  C53  1  0.89541000  0.56549000  0.11344000  1
  C  C54  1  0.85644000  0.62649000  0.14403000  1
  C  C55  1  0.87540000  0.69757000  0.12863000  1
  C  C56  1  0.93251000  0.70780000  0.08213000  1
  C  C57  1  0.98013000  0.65276000  0.05923000  1
  C  C58  1  0.96256000  0.58292000  0.07606000  1
  C  C59  1  0.94899000  0.78169000  0.06188000  1
  C  C60  1  0.73521000  0.05441000  0.88652000  1
  C  C61  1  0.64528000  0.07261000  0.85023000  1
  C  C62  1  0.59051000  0.03565000  0.76008000  1
  C  C63  1  0.50577000  0.05138000  0.72743000  1
  C  C64  1  0.47157000  0.10135000  0.78426000  1
  C  C65  1  0.52757000  0.13758000  0.87493000  1
  C  C66  1  0.61417000  0.12474000  0.90727000  1
  C  C67  1  0.37677000  0.11379000  0.75082000  1
  C  C68  1  0.34478000  0.11319000  0.67075000  1
  C  C69  1  0.25376000  0.12207000  0.63721000  1
  C  C70  1  0.19484000  0.13270000  0.68532000  1
  C  C71  1  0.22485000  0.13207000  0.76458000  1
  C  C72  1  0.31495000  0.12301000  0.79674000  1
  C  C73  1  0.21803000  0.11344000  0.54795000  1
  C  C74  1  0.28759000  0.14403000  0.51754000  1
  C  C75  1  0.25323000  0.12863000  0.43106000  1
  C  C76  1  0.14962000  0.08213000  0.37433000  1
  C  C77  1  0.07910000  0.05923000  0.40647000  1
  C  C78  1  0.11350000  0.07606000  0.49314000  1
  C  C79  1  0.11289000  0.06188000  0.28019000  1
  C  C80  1  0.84869000  0.11348000  0.16789000  1
  C  C81  1  0.79505000  0.14977000  0.22238000  1
  C  C82  1  0.83043000  0.23992000  0.27557000  1
  C  C83  1  0.77834000  0.27257000  0.32395000  1
  C  C84  1  0.68731000  0.21574000  0.31709000  1
  C  C85  1  0.65264000  0.12507000  0.26265000  1
  C  C86  1  0.70690000  0.09273000  0.21747000  1
  C  C87  1  0.62595000  0.24918000  0.36297000  1
  C  C88  1  0.67403000  0.32925000  0.44244000  1
  C  C89  1  0.61655000  0.36279000  0.48486000  1
  C  C90  1  0.50952000  0.31468000  0.44738000  1
  C  C91  1  0.46027000  0.23542000  0.36749000  1
  C  C92  1  0.51821000  0.20326000  0.32627000  1
  C  C93  1  0.67008000  0.45205000  0.56549000  1
  C  C94  1  0.77005000  0.48246000  0.62649000  1
  C  C95  1  0.82217000  0.56894000  0.69757000  1
  C  C96  1  0.77529000  0.62567000  0.70780000  1
  C  C97  1  0.67263000  0.59353000  0.65276000  1
  C  C98  1  0.62036000  0.50686000  0.58292000  1
  C  C99  1  0.83270000  0.71981000  0.78169000  1
  C  C100  1  0.68080000  0.83211000  0.94559000  1
  C  C101  1  0.57267000  0.77762000  0.92739000  1
  C  C102  1  0.55486000  0.72443000  0.96435000  1
  C  C103  1  0.45439000  0.67605000  0.94862000  1
  C  C104  1  0.37022000  0.68291000  0.89865000  1
  C  C105  1  0.38999000  0.73735000  0.86242000  1
  C  C106  1  0.48943000  0.78253000  0.87526000  1
  C  C107  1  0.26298000  0.63703000  0.88621000  1
  C  C108  1  0.23159000  0.55756000  0.88681000  1
  C  C109  1  0.13169000  0.51514000  0.87793000  1
  C  C110  1  0.06214000  0.55262000  0.86730000  1
  C  C111  1  0.09278000  0.63251000  0.86793000  1
  C  C112  1  0.19194000  0.67373000  0.87699000  1
  C  C113  1  0.10459000  0.43451000  0.88656000  1
  C  C114  1  0.14356000  0.37351000  0.85597000  1
  C  C115  1  0.12460000  0.30243000  0.87137000  1
  C  C116  1  0.06749000  0.29220000  0.91787000  1
  C  C117  1  0.01987000  0.34724000  0.94077000  1
  C  C118  1  0.03744000  0.41708000  0.92394000  1
  C  C119  1  0.05101000  0.21831000  0.93812000  1
  H  H120  1  0.38900000  0.00060000  0.27960000  1
  H  H121  1  0.52930000  0.97210000  0.33450000  1
  H  H122  1  0.49430000  0.82830000  0.08500000  1
  H  H123  1  0.34720000  0.84810000  0.03070000  1
  H  H124  1  0.61430000  0.89340000  0.36160000  1
  H  H125  1  0.86610000  0.85960000  0.33600000  1
  H  H126  1  0.81650000  0.86210000  0.20330000  1
  H  H127  1  0.66490000  0.87690000  0.14890000  1
  H  H128  1  0.64040000  0.82410000  0.44410000  1
  H  H129  1  0.69800000  0.84930000  0.58870000  1
  H  H130  1  0.99320000  0.96800000  0.63050000  1
  H  H131  1  0.93600000  0.93850000  0.48480000  1
  H  H132  1  0.10940000  0.72040000  0.72100000  1
  H  H133  1  0.19480000  0.66550000  0.63760000  1
  H  H134  1  0.40930000  0.91500000  0.74330000  1
  H  H135  1  0.31650000  0.96930000  0.81740000  1
  H  H136  1  0.25270000  0.63840000  0.53180000  1
  H  H137  1  0.53010000  0.66400000  0.52360000  1
  H  H138  1  0.61320000  0.79670000  0.65880000  1
  H  H139  1  0.51600000  0.85110000  0.72800000  1
  H  H140  1  0.19630000  0.55590000  0.38000000  1
  H  H141  1  0.10930000  0.41130000  0.26060000  1
  H  H142  1  0.36270000  0.36950000  0.33750000  1
  H  H143  1  0.45120000  0.51520000  0.45370000  1
  H  H144  1  0.38840000  0.27900000  0.99940000  1
  H  H145  1  0.55720000  0.36240000  0.02790000  1
  H  H146  1  0.66600000  0.25670000  0.17170000  1
  H  H147  1  0.49910000  0.18260000  0.15190000  1
  H  H148  1  0.72090000  0.46820000  0.10660000  1
  H  H149  1  0.00650000  0.47640000  0.14040000  1
  H  H150  1  0.95440000  0.34120000  0.13790000  1
  H  H151  1  0.78800000  0.27200000  0.12310000  1
  H  H152  1  0.81630000  0.62000000  0.17590000  1
  H  H153  1  0.84870000  0.73940000  0.15070000  1
  H  H154  1  0.02520000  0.66250000  0.03200000  1
  H  H155  1  0.99750000  0.54630000  0.06150000  1
  H  H156  1  0.61100000  0.99940000  0.72040000  1
  H  H157  1  0.47070000  0.02790000  0.66550000  1
  H  H158  1  0.50570000  0.17170000  0.91500000  1
  H  H159  1  0.65280000  0.15190000  0.96930000  1
  H  H160  1  0.38570000  0.10660000  0.63840000  1
  H  H161  1  0.13390000  0.14040000  0.66400000  1
  H  H162  1  0.18350000  0.13790000  0.79670000  1
  H  H163  1  0.33510000  0.12310000  0.85110000  1
  H  H164  1  0.35960000  0.17590000  0.55590000  1
  H  H165  1  0.30200000  0.15070000  0.41130000  1
  H  H166  1  0.00680000  0.03200000  0.36950000  1
  H  H167  1  0.06400000  0.06150000  0.51520000  1
  H  H168  1  0.89060000  0.27960000  0.27900000  1
  H  H169  1  0.80520000  0.33450000  0.36240000  1
  H  H170  1  0.59070000  0.08500000  0.25670000  1
  H  H171  1  0.68350000  0.03070000  0.18260000  1
  H  H172  1  0.74730000  0.36160000  0.46820000  1
  H  H173  1  0.46990000  0.33600000  0.47640000  1
  H  H174  1  0.38680000  0.20330000  0.34120000  1
  H  H175  1  0.48400000  0.14890000  0.27200000  1
  H  H176  1  0.80370000  0.44410000  0.62000000  1
  H  H177  1  0.89070000  0.58870000  0.73940000  1
  H  H178  1  0.63730000  0.63050000  0.66250000  1
  H  H179  1  0.54880000  0.48480000  0.54630000  1
  H  H180  1  0.61160000  0.72100000  0.00060000  1
  H  H181  1  0.44280000  0.63760000  0.97210000  1
  H  H182  1  0.33400000  0.74330000  0.82830000  1
  H  H183  1  0.50090000  0.81740000  0.84810000  1
  H  H184  1  0.27910000  0.53180000  0.89340000  1
  H  H185  1  0.99350000  0.52360000  0.85960000  1
  H  H186  1  0.04560000  0.65880000  0.86210000  1
  H  H187  1  0.21200000  0.72800000  0.87690000  1
  H  H188  1  0.18370000  0.38000000  0.82410000  1
  H  H189  1  0.15130000  0.26060000  0.84930000  1
  H  H190  1  0.97480000  0.33750000  0.96800000  1
  H  H191  1  0.00250000  0.45370000  0.93850000  1
  O  O192  1  0.27226000  0.02308000  0.15767000  1
  O  O193  1  0.19062000  0.88336000  0.04047000  1
  O  O194  1  0.81953000  0.90355000  0.74148000  1
  O  O195  1  0.98272000  0.98878000  0.76989000  1
  O  O196  1  0.10517000  0.12978000  0.04173000  1
  O  O197  1  0.14310000  0.00000000  0.00000000  1
  O  O198  1  0.11459000  0.84233000  0.86541000  1
  O  O199  1  0.15015000  0.95953000  0.84289000  1
  O  O200  1  0.07805000  0.25852000  0.16207000  1
  O  O201  1  0.21283000  0.23011000  0.21889000  1
  O  O202  1  0.06344000  0.95827000  0.08805000  1
  O  O203  1  0.24918000  0.13459000  0.97692000  1
  O  O204  1  0.30726000  0.15711000  0.11664000  1
  O  O205  1  0.91598000  0.83793000  0.09645000  1
  O  O206  1  0.99394000  0.78111000  0.01122000  1
  O  O207  1  0.97539000  0.91195000  0.87022000  1
  O  O208  1  0.72774000  0.97692000  0.84233000  1
  O  O209  1  0.80938000  0.11664000  0.95953000  1
  O  O210  1  0.18047000  0.09645000  0.25852000  1
  O  O211  1  0.01728000  0.01122000  0.23011000  1
  O  O212  1  0.89483000  0.87022000  0.95827000  1
  O  O213  1  0.85690000  0.00000000  0.00000000  1
  O  O214  1  0.88541000  0.15767000  0.13459000  1
  O  O215  1  0.84985000  0.04047000  0.15711000  1
  O  O216  1  0.92195000  0.74148000  0.83793000  1
  O  O217  1  0.78717000  0.76989000  0.78111000  1
  O  O218  1  0.93656000  0.04173000  0.91195000  1
  O  O219  1  0.75082000  0.86541000  0.02308000  1
  O  O220  1  0.69274000  0.84289000  0.88336000  1
  O  O221  1  0.08402000  0.16207000  0.90355000  1
  O  O222  1  0.00606000  0.21889000  0.98878000  1
  O  O223  1  0.02461000  0.08805000  0.12978000  1
  Zr  Zr224  1  0.16988000  0.08858000  0.13105000  1
  Zr  Zr225  1  0.03883000  0.86895000  0.95753000  1
  Zr  Zr226  1  0.08130000  0.04247000  0.91142000  1
  Zr  Zr227  1  0.83012000  0.91142000  0.86895000  1
  Zr  Zr228  1  0.96117000  0.13105000  0.04247000  1
  Zr  Zr229  1  0.91870000  0.95753000  0.08858000  1
