# generated using pymatgen
data_Zr3H36(C15O4)4
_symmetry_space_group_name_H-M   'P 1'
_cell_length_a   15.06050000
_cell_length_b   18.19767343
_cell_length_c   18.19767343
_cell_angle_alpha   112.69619491
_cell_angle_beta   106.01378365
_cell_angle_gamma   106.01378365
_symmetry_Int_Tables_number   1
_chemical_formula_structural   Zr3H36(C15O4)4
_chemical_formula_sum   'Zr6 H72 C120 O32'
_cell_volume   3990.47951426
_cell_formula_units_Z   2
loop_
 _symmetry_equiv_pos_site_id
 _symmetry_equiv_pos_as_xyz
  1  'x, y, z'
loop_
 _atom_site_type_symbol
 _atom_site_label
 _atom_site_symmetry_multiplicity
 _atom_site_fract_x
 _atom_site_fract_y
 _atom_site_fract_z
 _atom_site_occupancy
  C  C0  1  0.25746000  0.94252000  0.11199000  1
  C  C1  1  0.34405000  0.92258000  0.14933000  1
  C  C2  1  0.40554000  0.96718000  0.23913000  1
  C  C3  1  0.48801000  0.95171000  0.27152000  1
  C  C4  1  0.51459000  0.89412000  0.21556000  1
  C  C5  1  0.44931000  0.84763000  0.12660000  1
  C  C6  1  0.36407000  0.86051000  0.09410000  1
  C  C7  1  0.60892000  0.88345000  0.24918000  1
  C  C8  1  0.64548000  0.89002000  0.33177000  1
  C  C9  1  0.73706000  0.88452000  0.36589000  1
  C  C10  1  0.79322000  0.87283000  0.31578000  1
  C  C11  1  0.75791000  0.86691000  0.23407000  1
  C  C12  1  0.66675000  0.87146000  0.20069000  1
  C  C13  1  0.77584000  0.89625000  0.45631000  1
  C  C14  1  0.71085000  0.85854000  0.48490000  1
  C  C15  1  0.74662000  0.87296000  0.57059000  1
  C  C16  1  0.84822000  0.92564000  0.62834000  1
  C  C17  1  0.91435000  0.96304000  0.60033000  1
  C  C18  1  0.87777000  0.94781000  0.51458000  1
  C  C19  1  0.88676000  0.94292000  0.72119000  1
  C  C20  1  0.14547000  0.88801000  0.83053000  1
  C  C21  1  0.19472000  0.85067000  0.77325000  1
  C  C22  1  0.16641000  0.76087000  0.72805000  1
  C  C23  1  0.21649000  0.72848000  0.68019000  1
  C  C24  1  0.29903000  0.78444000  0.67856000  1
  C  C25  1  0.32271000  0.87340000  0.72103000  1
  C  C26  1  0.26997000  0.90590000  0.76641000  1
  C  C27  1  0.35974000  0.75082000  0.63427000  1
  C  C28  1  0.31371000  0.66823000  0.55825000  1
  C  C29  1  0.37117000  0.63411000  0.51863000  1
  C  C30  1  0.47744000  0.68422000  0.55705000  1
  C  C31  1  0.52384000  0.76593000  0.63284000  1
  C  C32  1  0.46606000  0.79931000  0.67077000  1
  C  C33  1  0.31953000  0.54369000  0.43994000  1
  C  C34  1  0.22595000  0.51510000  0.37364000  1
  C  C35  1  0.17603000  0.42941000  0.30237000  1
  C  C36  1  0.21988000  0.37166000  0.29730000  1
  C  C37  1  0.31402000  0.39967000  0.36271000  1
  C  C38  1  0.36319000  0.48542000  0.43323000  1
  C  C39  1  0.16557000  0.27881000  0.22173000  1
  C  C40  1  0.31494000  0.16947000  0.05748000  1
  C  C41  1  0.42147000  0.22675000  0.07742000  1
  C  C42  1  0.43836000  0.27195000  0.03282000  1
  C  C43  1  0.53630000  0.31981000  0.04829000  1
  C  C44  1  0.62047000  0.32144000  0.10588000  1
  C  C45  1  0.60168000  0.27897000  0.15237000  1
  C  C46  1  0.50356000  0.23359000  0.13949000  1
  C  C47  1  0.72547000  0.36573000  0.11655000  1
  C  C48  1  0.75546000  0.44175000  0.10998000  1
  C  C49  1  0.85254000  0.48137000  0.11548000  1
  C  C50  1  0.92039000  0.44295000  0.12717000  1
  C  C51  1  0.89100000  0.36716000  0.13309000  1
  C  C52  1  0.79529000  0.32923000  0.12854000  1
  C  C53  1  0.87959000  0.56006000  0.10375000  1
  C  C54  1  0.85231000  0.62636000  0.14146000  1
  C  C55  1  0.87366000  0.69763000  0.12704000  1
  C  C56  1  0.92258000  0.70270000  0.07436000  1
  C  C57  1  0.95131000  0.63729000  0.03696000  1
  C  C58  1  0.92996000  0.56677000  0.05219000  1
  C  C59  1  0.94384000  0.77827000  0.05708000  1
  C  C60  1  0.74254000  0.05748000  0.88801000  1
  C  C61  1  0.65595000  0.07742000  0.85067000  1
  C  C62  1  0.59446000  0.03282000  0.76087000  1
  C  C63  1  0.51199000  0.04829000  0.72848000  1
  C  C64  1  0.48541000  0.10588000  0.78444000  1
  C  C65  1  0.55069000  0.15237000  0.87340000  1
  C  C66  1  0.63593000  0.13949000  0.90590000  1
  C  C67  1  0.39108000  0.11655000  0.75082000  1
  C  C68  1  0.35452000  0.10998000  0.66823000  1
  C  C69  1  0.26294000  0.11548000  0.63411000  1
  C  C70  1  0.20678000  0.12717000  0.68422000  1
  C  C71  1  0.24209000  0.13309000  0.76593000  1
  C  C72  1  0.33325000  0.12854000  0.79931000  1
  C  C73  1  0.22416000  0.10375000  0.54369000  1
  C  C74  1  0.28915000  0.14146000  0.51510000  1
  C  C75  1  0.25338000  0.12704000  0.42941000  1
  C  C76  1  0.15178000  0.07436000  0.37166000  1
  C  C77  1  0.08565000  0.03696000  0.39967000  1
  C  C78  1  0.12223000  0.05219000  0.48542000  1
  C  C79  1  0.11324000  0.05708000  0.27881000  1
  C  C80  1  0.85453000  0.11199000  0.16947000  1
  C  C81  1  0.80528000  0.14933000  0.22675000  1
  C  C82  1  0.83359000  0.23913000  0.27195000  1
  C  C83  1  0.78351000  0.27152000  0.31981000  1
  C  C84  1  0.70097000  0.21556000  0.32144000  1
  C  C85  1  0.67729000  0.12660000  0.27897000  1
  C  C86  1  0.73003000  0.09410000  0.23359000  1
  C  C87  1  0.64026000  0.24918000  0.36573000  1
  C  C88  1  0.68629000  0.33177000  0.44175000  1
  C  C89  1  0.62883000  0.36589000  0.48137000  1
  C  C90  1  0.52256000  0.31578000  0.44295000  1
  C  C91  1  0.47616000  0.23407000  0.36716000  1
  C  C92  1  0.53394000  0.20069000  0.32923000  1
  C  C93  1  0.68047000  0.45631000  0.56006000  1
  C  C94  1  0.77405000  0.48490000  0.62636000  1
  C  C95  1  0.82397000  0.57059000  0.69763000  1
  C  C96  1  0.78012000  0.62834000  0.70270000  1
  C  C97  1  0.68598000  0.60033000  0.63729000  1
  C  C98  1  0.63681000  0.51458000  0.56677000  1
  C  C99  1  0.83443000  0.72119000  0.77827000  1
  C  C100  1  0.68506000  0.83053000  0.94252000  1
  C  C101  1  0.57853000  0.77325000  0.92258000  1
  C  C102  1  0.56164000  0.72805000  0.96718000  1
  C  C103  1  0.46370000  0.68019000  0.95171000  1
  C  C104  1  0.37953000  0.67856000  0.89412000  1
  C  C105  1  0.39832000  0.72103000  0.84763000  1
  C  C106  1  0.49644000  0.76641000  0.86051000  1
  C  C107  1  0.27453000  0.63427000  0.88345000  1
  C  C108  1  0.24454000  0.55825000  0.89002000  1
  C  C109  1  0.14746000  0.51863000  0.88452000  1
  C  C110  1  0.07961000  0.55705000  0.87283000  1
  C  C111  1  0.10900000  0.63284000  0.86691000  1
  C  C112  1  0.20471000  0.67077000  0.87146000  1
  C  C113  1  0.12041000  0.43994000  0.89625000  1
  C  C114  1  0.14769000  0.37364000  0.85854000  1
  C  C115  1  0.12634000  0.30237000  0.87296000  1
  C  C116  1  0.07742000  0.29730000  0.92564000  1
  C  C117  1  0.04869000  0.36271000  0.96304000  1
  C  C118  1  0.07004000  0.43323000  0.94781000  1
  C  C119  1  0.05616000  0.22173000  0.94292000  1
  H  H120  1  0.39063000  0.00874000  0.27863000  1
  H  H121  1  0.52772000  0.98104000  0.33351000  1
  H  H122  1  0.46349000  0.80570000  0.08672000  1
  H  H123  1  0.31918000  0.82591000  0.03291000  1
  H  H124  1  0.60728000  0.89840000  0.36551000  1
  H  H125  1  0.85569000  0.86895000  0.33802000  1
  H  H126  1  0.79670000  0.85968000  0.20074000  1
  H  H127  1  0.64282000  0.86638000  0.14409000  1
  H  H128  1  0.64048000  0.82210000  0.44559000  1
  H  H129  1  0.70067000  0.84629000  0.58931000  1
  H  H130  1  0.98480000  0.99916000  0.63954000  1
  H  H131  1  0.92403000  0.97353000  0.49555000  1
  H  H132  1  0.11200000  0.72137000  0.73011000  1
  H  H133  1  0.19421000  0.66649000  0.64753000  1
  H  H134  1  0.37677000  0.91328000  0.71898000  1
  H  H135  1  0.28627000  0.96709000  0.79300000  1
  H  H136  1  0.24177000  0.63449000  0.53289000  1
  H  H137  1  0.51767000  0.66198000  0.53093000  1
  H  H138  1  0.59596000  0.79926000  0.65894000  1
  H  H139  1  0.49873000  0.85591000  0.72229000  1
  H  H140  1  0.19489000  0.55441000  0.37651000  1
  H  H141  1  0.11136000  0.41069000  0.25698000  1
  H  H142  1  0.34526000  0.36046000  0.35962000  1
  H  H143  1  0.42848000  0.50445000  0.47798000  1
  H  H144  1  0.38189000  0.26989000  0.99126000  1
  H  H145  1  0.54668000  0.35247000  0.01896000  1
  H  H146  1  0.65779000  0.28102000  0.19430000  1
  H  H147  1  0.49327000  0.20700000  0.17409000  1
  H  H148  1  0.70888000  0.46711000  0.10160000  1
  H  H149  1  0.98674000  0.46907000  0.13105000  1
  H  H150  1  0.93702000  0.34106000  0.14032000  1
  H  H151  1  0.77644000  0.27771000  0.13362000  1
  H  H152  1  0.81838000  0.62349000  0.17790000  1
  H  H153  1  0.85438000  0.74302000  0.15371000  1
  H  H154  1  0.98564000  0.64038000  0.00084000  1
  H  H155  1  0.95050000  0.52202000  0.02647000  1
  H  H156  1  0.60937000  0.99126000  0.72137000  1
  H  H157  1  0.47228000  0.01896000  0.66649000  1
  H  H158  1  0.53651000  0.19430000  0.91328000  1
  H  H159  1  0.68082000  0.17409000  0.96709000  1
  H  H160  1  0.39272000  0.10160000  0.63449000  1
  H  H161  1  0.14431000  0.13105000  0.66198000  1
  H  H162  1  0.20330000  0.14032000  0.79926000  1
  H  H163  1  0.35718000  0.13362000  0.85591000  1
  H  H164  1  0.35952000  0.17790000  0.55441000  1
  H  H165  1  0.29933000  0.15371000  0.41069000  1
  H  H166  1  0.01520000  0.00084000  0.36046000  1
  H  H167  1  0.07597000  0.02647000  0.50445000  1
  H  H168  1  0.88800000  0.27863000  0.26989000  1
  H  H169  1  0.80579000  0.33351000  0.35247000  1
  H  H170  1  0.62323000  0.08672000  0.28102000  1
  H  H171  1  0.71373000  0.03291000  0.20700000  1
  H  H172  1  0.75823000  0.36551000  0.46711000  1
  H  H173  1  0.48233000  0.33802000  0.46907000  1
  H  H174  1  0.40404000  0.20074000  0.34106000  1
  H  H175  1  0.50127000  0.14409000  0.27771000  1
  H  H176  1  0.80511000  0.44559000  0.62349000  1
  H  H177  1  0.88864000  0.58931000  0.74302000  1
  H  H178  1  0.65474000  0.63954000  0.64038000  1
  H  H179  1  0.57152000  0.49555000  0.52202000  1
  H  H180  1  0.61811000  0.73011000  0.00874000  1
  H  H181  1  0.45332000  0.64753000  0.98104000  1
  H  H182  1  0.34221000  0.71898000  0.80570000  1
  H  H183  1  0.50673000  0.79300000  0.82591000  1
  H  H184  1  0.29112000  0.53289000  0.89840000  1
  H  H185  1  0.01326000  0.53093000  0.86895000  1
  H  H186  1  0.06298000  0.65894000  0.85968000  1
  H  H187  1  0.22356000  0.72229000  0.86638000  1
  H  H188  1  0.18162000  0.37651000  0.82210000  1
  H  H189  1  0.14562000  0.25698000  0.84629000  1
  H  H190  1  0.01436000  0.35962000  0.99916000  1
  H  H191  1  0.04950000  0.47798000  0.97353000  1
  O  O192  1  0.26726000  0.02028000  0.15543000  1
  O  O193  1  0.18416000  0.88061000  0.03866000  1
  O  O194  1  0.82069000  0.90688000  0.74265000  1
  O  O195  1  0.98155000  0.99243000  0.77095000  1
  O  O196  1  0.10488000  0.12981000  0.04332000  1
  O  O197  1  0.14121000  0.00000000  0.00000000  1
  O  O198  1  0.11183000  0.84457000  0.86485000  1
  O  O199  1  0.14550000  0.96134000  0.84195000  1
  O  O200  1  0.07804000  0.25735000  0.16423000  1
  O  O201  1  0.21060000  0.22905000  0.22148000  1
  O  O202  1  0.06156000  0.95668000  0.08649000  1
  O  O203  1  0.24698000  0.13515000  0.97972000  1
  O  O204  1  0.30355000  0.15805000  0.11939000  1
  O  O205  1  0.91381000  0.83577000  0.09312000  1
  O  O206  1  0.98912000  0.77852000  0.00757000  1
  O  O207  1  0.97507000  0.91351000  0.87019000  1
  O  O208  1  0.73274000  0.97972000  0.84457000  1
  O  O209  1  0.81584000  0.11939000  0.96134000  1
  O  O210  1  0.17931000  0.09312000  0.25735000  1
  O  O211  1  0.01845000  0.00757000  0.22905000  1
  O  O212  1  0.89512000  0.87019000  0.95668000  1
  O  O213  1  0.85879000  0.00000000  0.00000000  1
  O  O214  1  0.88817000  0.15543000  0.13515000  1
  O  O215  1  0.85450000  0.03866000  0.15805000  1
  O  O216  1  0.92196000  0.74265000  0.83577000  1
  O  O217  1  0.78940000  0.77095000  0.77852000  1
  O  O218  1  0.93844000  0.04332000  0.91351000  1
  O  O219  1  0.75302000  0.86485000  0.02028000  1
  O  O220  1  0.69645000  0.84195000  0.88061000  1
  O  O221  1  0.08619000  0.16423000  0.90688000  1
  O  O222  1  0.01088000  0.22148000  0.99243000  1
  O  O223  1  0.02493000  0.08649000  0.12981000  1
  Zr  Zr224  1  0.16772000  0.08724000  0.13104000  1
  Zr  Zr225  1  0.03668000  0.86896000  0.95620000  1
  Zr  Zr226  1  0.08048000  0.04380000  0.91276000  1
  Zr  Zr227  1  0.83228000  0.91276000  0.86896000  1
  Zr  Zr228  1  0.96332000  0.13104000  0.04380000  1
  Zr  Zr229  1  0.91952000  0.95620000  0.08724000  1
