# generated using pymatgen
data_Zr3H42(C9O2)8
_symmetry_space_group_name_H-M   'P 1'
_cell_length_a   15.00650000
_cell_length_b   20.45970278
_cell_length_c   20.45970278
_cell_angle_alpha   114.22606256
_cell_angle_beta   104.15162105
_cell_angle_gamma   104.15162105
_symmetry_Int_Tables_number   1
_chemical_formula_structural   Zr3H42(C9O2)8
_chemical_formula_sum   'Zr6 H84 C144 O32'
_cell_volume   5114.94067542
_cell_formula_units_Z   2
loop_
 _symmetry_equiv_pos_site_id
 _symmetry_equiv_pos_as_xyz
  1  'x, y, z'
loop_
 _atom_site_type_symbol
 _atom_site_label
 _atom_site_symmetry_multiplicity
 _atom_site_fract_x
 _atom_site_fract_y
 _atom_site_fract_z
 _atom_site_occupancy
  C  C0  1  0.15349000  0.19626000  0.24531000  1
  C  C1  1  0.21248000  0.25921000  0.32873000  1
  C  C2  1  0.16800000  0.26890000  0.38180000  1
  C  C3  1  0.22330000  0.33000000  0.45900000  1
  C  C4  1  0.32042000  0.37894000  0.48182000  1
  C  C5  1  0.36339000  0.36558000  0.42759000  1
  C  C6  1  0.31000000  0.30590000  0.35110000  1
  C  C7  1  0.37595000  0.44740000  0.56165000  1
  C  C8  1  0.32475000  0.48920000  0.59665000  1
  C  C9  1  0.37594000  0.55818000  0.67014000  1
  C  C10  1  0.48192000  0.58484000  0.70942000  1
  C  C11  1  0.53110000  0.53940000  0.67410000  1
  C  C12  1  0.47980000  0.47280000  0.60240000  1
  C  C13  1  0.32392000  0.60154000  0.70382000  1
  C  C14  1  0.37390000  0.67020000  0.77430000  1
  C  C15  1  0.47880000  0.69650000  0.81310000  1
  C  C16  1  0.53140000  0.65630000  0.78280000  1
  C  C17  1  0.31610000  0.71430000  0.80700000  1
  C  C18  1  0.23859000  0.71864000  0.75973000  1
  C  C19  1  0.18682000  0.76319000  0.79027000  1
  C  C20  1  0.21197000  0.80264000  0.86977000  1
  C  C21  1  0.28740000  0.79790000  0.91810000  1
  C  C22  1  0.33950000  0.75360000  0.88620000  1
  C  C23  1  0.15979000  0.85273000  0.90284000  1
  C  C24  1  0.90818000  0.75469000  0.95095000  1
  C  C25  1  0.88375000  0.67127000  0.93048000  1
  C  C26  1  0.78620000  0.61820000  0.88710000  1
  C  C27  1  0.76430000  0.54100000  0.87100000  1
  C  C28  1  0.83860000  0.51818000  0.89712000  1
  C  C29  1  0.93580000  0.57241000  0.93799000  1
  C  C30  1  0.95890000  0.64890000  0.95480000  1
  C  C31  1  0.81430000  0.43835000  0.88575000  1
  C  C32  1  0.72810000  0.40335000  0.89255000  1
  C  C33  1  0.70580000  0.32986000  0.88804000  1
  C  C34  1  0.77250000  0.29058000  0.87542000  1
  C  C35  1  0.85700000  0.32590000  0.86530000  1
  C  C36  1  0.87740000  0.39760000  0.87040000  1
  C  C37  1  0.62010000  0.29618000  0.89772000  1
  C  C38  1  0.59960000  0.22570000  0.89590000  1
  C  C39  1  0.66570000  0.18690000  0.88340000  1
  C  C40  1  0.74860000  0.21720000  0.87350000  1
  C  C41  1  0.50910000  0.19300000  0.90730000  1
  C  C42  1  0.47886000  0.24027000  0.95891000  1
  C  C43  1  0.39655000  0.20973000  0.97292000  1
  C  C44  1  0.34220000  0.13023000  0.93287000  1
  C  C45  1  0.36930000  0.08190000  0.87980000  1
  C  C46  1  0.45330000  0.11380000  0.86740000  1
  C  C47  1  0.25695000  0.09716000  0.94989000  1
  C  C48  1  0.95723000  0.04905000  0.80374000  1
  C  C49  1  0.95327000  0.06952000  0.74079000  1
  C  C50  1  0.89910000  0.11290000  0.73110000  1
  C  C51  1  0.89330000  0.12900000  0.67000000  1
  C  C52  1  0.94148000  0.10288000  0.62106000  1
  C  C53  1  0.99781000  0.06201000  0.63442000  1
  C  C54  1  0.00410000  0.04520000  0.69410000  1
  C  C55  1  0.92855000  0.11425000  0.55260000  1
  C  C56  1  0.83555000  0.10745000  0.51080000  1
  C  C57  1  0.81776000  0.11196000  0.44182000  1
  C  C58  1  0.89708000  0.12458000  0.41516000  1
  C  C59  1  0.99170000  0.13470000  0.46060000  1
  C  C60  1  0.00700000  0.12960000  0.52720000  1
  C  C61  1  0.72238000  0.10228000  0.39846000  1
  C  C62  1  0.70370000  0.10410000  0.32980000  1
  C  C63  1  0.78230000  0.11660000  0.30350000  1
  C  C64  1  0.87510000  0.12650000  0.34370000  1
  C  C65  1  0.60180000  0.09270000  0.28570000  1
  C  C66  1  0.51995000  0.04109000  0.28136000  1
  C  C67  1  0.42363000  0.02708000  0.23681000  1
  C  C68  1  0.40933000  0.06713000  0.19736000  1
  C  C69  1  0.48950000  0.12020000  0.20210000  1
  C  C70  1  0.58590000  0.13260000  0.24640000  1
  C  C71  1  0.30706000  0.05011000  0.14727000  1
  C  C72  1  0.84651000  0.80374000  0.75469000  1
  C  C73  1  0.78752000  0.74079000  0.67127000  1
  C  C74  1  0.83200000  0.73110000  0.61820000  1
  C  C75  1  0.77670000  0.67000000  0.54100000  1
  C  C76  1  0.67958000  0.62106000  0.51818000  1
  C  C77  1  0.63661000  0.63442000  0.57241000  1
  C  C78  1  0.69000000  0.69410000  0.64890000  1
  C  C79  1  0.62405000  0.55260000  0.43835000  1
  C  C80  1  0.67525000  0.51080000  0.40335000  1
  C  C81  1  0.62406000  0.44182000  0.32986000  1
  C  C82  1  0.51808000  0.41516000  0.29058000  1
  C  C83  1  0.46890000  0.46060000  0.32590000  1
  C  C84  1  0.52020000  0.52720000  0.39760000  1
  C  C85  1  0.67608000  0.39846000  0.29618000  1
  C  C86  1  0.62610000  0.32980000  0.22570000  1
  C  C87  1  0.52120000  0.30350000  0.18690000  1
  C  C88  1  0.46860000  0.34370000  0.21720000  1
  C  C89  1  0.68390000  0.28570000  0.19300000  1
  C  C90  1  0.76141000  0.28136000  0.24027000  1
  C  C91  1  0.81318000  0.23681000  0.20973000  1
  C  C92  1  0.78803000  0.19736000  0.13023000  1
  C  C93  1  0.71260000  0.20210000  0.08190000  1
  C  C94  1  0.66050000  0.24640000  0.11380000  1
  C  C95  1  0.84021000  0.14727000  0.09716000  1
  C  C96  1  0.09182000  0.24531000  0.04905000  1
  C  C97  1  0.11625000  0.32873000  0.06952000  1
  C  C98  1  0.21380000  0.38180000  0.11290000  1
  C  C99  1  0.23570000  0.45900000  0.12900000  1
  C  C100  1  0.16140000  0.48182000  0.10288000  1
  C  C101  1  0.06420000  0.42759000  0.06201000  1
  C  C102  1  0.04110000  0.35110000  0.04520000  1
  C  C103  1  0.18570000  0.56165000  0.11425000  1
  C  C104  1  0.27190000  0.59665000  0.10745000  1
  C  C105  1  0.29420000  0.67014000  0.11196000  1
  C  C106  1  0.22750000  0.70942000  0.12458000  1
  C  C107  1  0.14300000  0.67410000  0.13470000  1
  C  C108  1  0.12260000  0.60240000  0.12960000  1
  C  C109  1  0.37990000  0.70382000  0.10228000  1
  C  C110  1  0.40040000  0.77430000  0.10410000  1
  C  C111  1  0.33430000  0.81310000  0.11660000  1
  C  C112  1  0.25140000  0.78280000  0.12650000  1
  C  C113  1  0.49090000  0.80700000  0.09270000  1
  C  C114  1  0.52114000  0.75973000  0.04109000  1
  C  C115  1  0.60345000  0.79027000  0.02708000  1
  C  C116  1  0.65780000  0.86977000  0.06713000  1
  C  C117  1  0.63070000  0.91810000  0.12020000  1
  C  C118  1  0.54670000  0.88620000  0.13260000  1
  C  C119  1  0.74305000  0.90284000  0.05011000  1
  C  C120  1  0.04277000  0.95095000  0.19626000  1
  C  C121  1  0.04673000  0.93048000  0.25921000  1
  C  C122  1  0.10090000  0.88710000  0.26890000  1
  C  C123  1  0.10670000  0.87100000  0.33000000  1
  C  C124  1  0.05852000  0.89712000  0.37894000  1
  C  C125  1  0.00219000  0.93799000  0.36558000  1
  C  C126  1  0.99590000  0.95480000  0.30590000  1
  C  C127  1  0.07145000  0.88575000  0.44740000  1
  C  C128  1  0.16445000  0.89255000  0.48920000  1
  C  C129  1  0.18224000  0.88804000  0.55818000  1
  C  C130  1  0.10292000  0.87542000  0.58484000  1
  C  C131  1  0.00830000  0.86530000  0.53940000  1
  C  C132  1  0.99300000  0.87040000  0.47280000  1
  C  C133  1  0.27762000  0.89772000  0.60154000  1
  C  C134  1  0.29630000  0.89590000  0.67020000  1
  C  C135  1  0.21770000  0.88340000  0.69650000  1
  C  C136  1  0.12490000  0.87350000  0.65630000  1
  C  C137  1  0.39820000  0.90730000  0.71430000  1
  C  C138  1  0.48005000  0.95891000  0.71864000  1
  C  C139  1  0.57637000  0.97292000  0.76319000  1
  C  C140  1  0.59067000  0.93287000  0.80264000  1
  C  C141  1  0.51050000  0.87980000  0.79790000  1
  C  C142  1  0.41410000  0.86740000  0.75360000  1
  C  C143  1  0.69294000  0.94989000  0.85273000  1
  H  H144  1  0.10160000  0.23520000  0.36660000  1
  H  H145  1  0.19340000  0.33760000  0.49610000  1
  H  H146  1  0.43080000  0.39790000  0.44300000  1
  H  H147  1  0.34040000  0.29730000  0.31440000  1
  H  H148  1  0.25460000  0.47150000  0.57100000  1
  H  H149  1  0.60090000  0.55510000  0.70010000  1
  H  H150  1  0.51480000  0.44320000  0.57980000  1
  H  H151  1  0.25370000  0.58340000  0.67810000  1
  H  H152  1  0.51280000  0.74360000  0.86170000  1
  H  H153  1  0.60140000  0.67530000  0.81000000  1
  H  H154  1  0.21970000  0.69070000  0.70490000  1
  H  H155  1  0.13410000  0.76640000  0.75640000  1
  H  H156  1  0.30460000  0.82430000  0.97270000  1
  H  H157  1  0.39210000  0.75020000  0.91990000  1
  H  H158  1  0.73500000  0.63340000  0.86860000  1
  H  H159  1  0.69730000  0.50390000  0.84150000  1
  H  H160  1  0.98780000  0.55700000  0.95490000  1
  H  H161  1  0.02600000  0.68560000  0.98290000  1
  H  H162  1  0.68360000  0.42900000  0.90050000  1
  H  H163  1  0.90080000  0.29990000  0.85500000  1
  H  H164  1  0.93500000  0.42020000  0.86340000  1
  H  H165  1  0.57560000  0.32190000  0.90530000  1
  H  H166  1  0.65110000  0.13830000  0.88190000  1
  H  H167  1  0.79140000  0.19000000  0.86530000  1
  H  H168  1  0.51480000  0.29510000  0.98580000  1
  H  H169  1  0.37770000  0.24360000  0.01000000  1
  H  H170  1  0.33190000  0.02730000  0.85160000  1
  H  H171  1  0.47220000  0.08010000  0.83030000  1
  H  H172  1  0.86640000  0.13140000  0.76480000  1
  H  H173  1  0.85580000  0.15850000  0.66240000  1
  H  H174  1  0.03290000  0.04510000  0.60210000  1
  H  H175  1  0.04310000  0.01710000  0.70270000  1
  H  H176  1  0.78310000  0.09950000  0.52850000  1
  H  H177  1  0.04580000  0.14500000  0.44490000  1
  H  H178  1  0.07160000  0.13660000  0.55680000  1
  H  H179  1  0.67030000  0.09470000  0.41660000  1
  H  H180  1  0.76920000  0.11810000  0.25640000  1
  H  H181  1  0.92610000  0.13470000  0.32470000  1
  H  H182  1  0.52900000  0.01420000  0.30930000  1
  H  H183  1  0.36770000  0.99000000  0.23360000  1
  H  H184  1  0.48030000  0.14840000  0.17570000  1
  H  H185  1  0.64190000  0.16970000  0.24980000  1
  H  H186  1  0.89840000  0.76480000  0.63340000  1
  H  H187  1  0.80660000  0.66240000  0.50390000  1
  H  H188  1  0.56920000  0.60210000  0.55700000  1
  H  H189  1  0.65960000  0.70270000  0.68560000  1
  H  H190  1  0.74540000  0.52850000  0.42900000  1
  H  H191  1  0.39910000  0.44490000  0.29990000  1
  H  H192  1  0.48520000  0.55680000  0.42020000  1
  H  H193  1  0.74630000  0.41660000  0.32190000  1
  H  H194  1  0.48720000  0.25640000  0.13830000  1
  H  H195  1  0.39860000  0.32470000  0.19000000  1
  H  H196  1  0.78030000  0.30930000  0.29510000  1
  H  H197  1  0.86590000  0.23360000  0.24360000  1
  H  H198  1  0.69540000  0.17570000  0.02730000  1
  H  H199  1  0.60790000  0.24980000  0.08010000  1
  H  H200  1  0.26500000  0.36660000  0.13140000  1
  H  H201  1  0.30270000  0.49610000  0.15850000  1
  H  H202  1  0.01220000  0.44300000  0.04510000  1
  H  H203  1  0.97400000  0.31440000  0.01710000  1
  H  H204  1  0.31640000  0.57100000  0.09950000  1
  H  H205  1  0.09920000  0.70010000  0.14500000  1
  H  H206  1  0.06500000  0.57980000  0.13660000  1
  H  H207  1  0.42440000  0.67810000  0.09470000  1
  H  H208  1  0.34890000  0.86170000  0.11810000  1
  H  H209  1  0.20860000  0.81000000  0.13470000  1
  H  H210  1  0.48520000  0.70490000  0.01420000  1
  H  H211  1  0.62230000  0.75640000  0.99000000  1
  H  H212  1  0.66810000  0.97270000  0.14840000  1
  H  H213  1  0.52780000  0.91990000  0.16970000  1
  H  H214  1  0.13360000  0.86860000  0.23520000  1
  H  H215  1  0.14420000  0.84150000  0.33760000  1
  H  H216  1  0.96710000  0.95490000  0.39790000  1
  H  H217  1  0.95690000  0.98290000  0.29730000  1
  H  H218  1  0.21690000  0.90050000  0.47150000  1
  H  H219  1  0.95420000  0.85500000  0.55510000  1
  H  H220  1  0.92840000  0.86340000  0.44320000  1
  H  H221  1  0.32970000  0.90530000  0.58340000  1
  H  H222  1  0.23080000  0.88190000  0.74360000  1
  H  H223  1  0.07390000  0.86530000  0.67530000  1
  H  H224  1  0.47100000  0.98580000  0.69070000  1
  H  H225  1  0.63230000  0.01000000  0.76640000  1
  H  H226  1  0.51970000  0.85160000  0.82430000  1
  H  H227  1  0.35810000  0.83030000  0.75020000  1
  O  O228  1  0.06605000  0.14846000  0.22789000  1
  O  O229  1  0.19729000  0.19707000  0.19890000  1
  O  O230  1  0.15704000  0.86289000  0.96783000  1
  O  O231  1  0.12282000  0.88042000  0.86294000  1
  O  O232  1  0.94122000  0.92518000  0.04068000  1
  O  O233  1  0.86050000  0.00000000  0.00000000  1
  O  O234  1  0.83816000  0.77211000  0.92057000  1
  O  O235  1  0.99839000  0.80110000  0.99817000  1
  O  O236  1  0.18921000  0.03217000  0.89506000  1
  O  O237  1  0.25988000  0.13706000  0.01748000  1
  O  O238  1  0.90054000  0.95932000  0.88450000  1
  O  O239  1  0.91759000  0.07943000  0.85154000  1
  O  O240  1  0.00022000  0.00183000  0.80293000  1
  O  O241  1  0.29415000  0.10494000  0.13711000  1
  O  O242  1  0.24240000  0.98252000  0.11958000  1
  O  O243  1  0.01604000  0.11550000  0.07482000  1
  O  O244  1  0.93395000  0.85154000  0.77211000  1
  O  O245  1  0.80271000  0.80293000  0.80110000  1
  O  O246  1  0.84296000  0.13711000  0.03217000  1
  O  O247  1  0.87718000  0.11958000  0.13706000  1
  O  O248  1  0.05878000  0.07482000  0.95932000  1
  O  O249  1  0.13950000  0.00000000  0.00000000  1
  O  O250  1  0.16184000  0.22789000  0.07943000  1
  O  O251  1  0.00161000  0.19890000  0.00183000  1
  O  O252  1  0.81079000  0.96783000  0.10494000  1
  O  O253  1  0.74012000  0.86294000  0.98252000  1
  O  O254  1  0.09946000  0.04068000  0.11550000  1
  O  O255  1  0.08241000  0.92057000  0.14846000  1
  O  O256  1  0.99978000  0.99817000  0.19707000  1
  O  O257  1  0.70585000  0.89506000  0.86289000  1
  O  O258  1  0.75760000  0.01748000  0.88042000  1
  O  O259  1  0.98396000  0.88450000  0.92518000  1
  Zr  Zr260  1  0.95736000  0.04059000  0.11577000  1
  Zr  Zr261  1  0.84159000  0.88423000  0.92482000  1
  Zr  Zr262  1  0.91677000  0.07518000  0.95941000  1
  Zr  Zr263  1  0.04264000  0.95941000  0.88423000  1
  Zr  Zr264  1  0.15841000  0.11577000  0.07518000  1
  Zr  Zr265  1  0.08323000  0.92482000  0.04059000  1
