# generated using pymatgen
data_Zr3H72C82Cl27O16
_symmetry_space_group_name_H-M   'P 1'
_cell_length_a   12.47080000
_cell_length_b   21.30035135
_cell_length_c   21.30035135
_cell_angle_alpha   116.28714551
_cell_angle_beta   101.25395191
_cell_angle_gamma   101.25395191
_symmetry_Int_Tables_number   1
_chemical_formula_structural   Zr3H72C82Cl27O16
_chemical_formula_sum   'Zr6 H144 C164 Cl54 O32'
_cell_volume   4713.40154974
_cell_formula_units_Z   2
loop_
 _symmetry_equiv_pos_site_id
 _symmetry_equiv_pos_as_xyz
  1  'x, y, z'
loop_
 _atom_site_type_symbol
 _atom_site_label
 _atom_site_symmetry_multiplicity
 _atom_site_fract_x
 _atom_site_fract_y
 _atom_site_fract_z
 _atom_site_occupancy
  C  C0  1  0.29031000  0.93874000  0.08779000  1
  C  C1  1  0.37387000  0.91629000  0.12692000  1
  C  C2  1  0.41781000  0.95706000  0.20417000  1
  C  C3  1  0.50170000  0.93994000  0.24106000  1
  C  C4  1  0.54446000  0.88439000  0.20289000  1
  C  C5  1  0.49590000  0.84170000  0.12630000  1
  C  C6  1  0.40890000  0.85680000  0.08840000  1
  C  C7  1  0.64351000  0.87278000  0.24345000  1
  C  C8  1  0.65542000  0.88486000  0.31360000  1
  C  C9  1  0.75404000  0.88012000  0.35500000  1
  C  C10  1  0.84080000  0.86096000  0.32334000  1
  C  C11  1  0.82550000  0.84690000  0.24980000  1
  C  C12  1  0.73090000  0.85348000  0.21172000  1
  C  C13  1  0.76968000  0.89615000  0.42909000  1
  C  C14  1  0.86700000  0.89424000  0.47036000  1
  C  C15  1  0.95330000  0.87531111  0.43768889  1
  C  C16  1  0.93980000  0.85850000  0.36630000  1
  C  C17  1  0.88243000  0.91342000  0.54787000  1
  C  C18  1  0.78759000  0.89432000  0.56895000  1
  C  C19  1  0.80117000  0.91398000  0.64283000  1
  C  C20  1  0.90907000  0.95219000  0.69552000  1
  C  C21  1  0.00420000  0.97094000  0.67506000  1
  C  C22  1  0.99170000  0.95178000  0.60182000  1
  C  C23  1  0.92425000  0.97170000  0.77435000  1
  C  C24  1  0.03870000  0.64150000  0.31930000  1
  C  C25  1  0.35700000  0.86310000  0.52160000  1
  C  C26  1  0.22530000  0.81930000  0.21920000  1
  C  C27  1  0.44366778  0.00000333  1.00000000  1
  C  C28  1  0.20252000  0.91221000  0.85095000  1
  C  C29  1  0.24695000  0.87308000  0.78937000  1
  C  C30  1  0.21364000  0.79583000  0.75289000  1
  C  C31  1  0.26064000  0.75894000  0.69888000  1
  C  C32  1  0.34157000  0.79711000  0.68150000  1
  C  C33  1  0.36960000  0.87370000  0.71540000  1
  C  C34  1  0.32050000  0.91160000  0.76840000  1
  C  C35  1  0.40006000  0.75655000  0.62933000  1
  C  C36  1  0.34182000  0.68640000  0.57126000  1
  C  C37  1  0.39904000  0.64500000  0.52512000  1
  C  C38  1  0.51746000  0.67666000  0.53762000  1
  C  C39  1  0.57570000  0.75020000  0.59710000  1
  C  C40  1  0.51918000  0.78828000  0.64176000  1
  C  C41  1  0.34059000  0.57091000  0.46706000  1
  C  C42  1  0.39664000  0.52964000  0.42388000  1
  C  C43  1  0.51562222  0.56234444  0.43762222  1
  C  C44  1  0.57350000  0.63370000  0.49220000  1
  C  C45  1  0.33456000  0.45213000  0.36555000  1
  C  C46  1  0.21864000  0.43105000  0.32537000  1
  C  C47  1  0.15834000  0.35717000  0.27115000  1
  C  C48  1  0.21355000  0.30448000  0.25667000  1
  C  C49  1  0.32914000  0.32494000  0.29588000  1
  C  C50  1  0.38988000  0.39818000  0.34996000  1
  C  C51  1  0.14990000  0.22565000  0.19735000  1
  C  C52  1  0.35157000  0.14905000  0.06126000  1
  C  C53  1  0.45758000  0.21063000  0.08371000  1
  C  C54  1  0.46075000  0.24711000  0.04294000  1
  C  C55  1  0.56176000  0.30112000  0.06006000  1
  C  C56  1  0.66007000  0.31850000  0.11561000  1
  C  C57  1  0.65420000  0.28460000  0.15830000  1
  C  C58  1  0.55210000  0.23160000  0.14320000  1
  C  C59  1  0.77073000  0.37067000  0.12722000  1
  C  C60  1  0.77056000  0.42874000  0.11514000  1
  C  C61  1  0.87392000  0.47488000  0.11988000  1
  C  C62  1  0.97984000  0.46238000  0.13904000  1
  C  C63  1  0.97860000  0.40290000  0.15310000  1
  C  C64  1  0.87742000  0.35824000  0.14652000  1
  C  C65  1  0.87353000  0.53294000  0.10385000  1
  C  C66  1  0.97276000  0.57612000  0.10576000  1
  C  C67  1  0.07800000  0.56240000  0.12470000  1
  C  C68  1  0.08130000  0.50780000  0.14150000  1
  C  C69  1  0.96901000  0.63445000  0.08658000  1
  C  C70  1  0.89327000  0.67463000  0.10568000  1
  C  C71  1  0.88719000  0.72885000  0.08602000  1
  C  C72  1  0.95688000  0.74333000  0.04781000  1
  C  C73  1  0.03326000  0.70412000  0.02906000  1
  C  C74  1  0.03992000  0.65004000  0.04822000  1
  C  C75  1  0.95255000  0.80265000  0.02830000  1
  C  C76  1  0.71940000  0.68070000  0.32220000  1
  C  C77  1  0.83540000  0.47840000  0.34150000  1
  C  C78  1  0.00610000  0.78080000  0.60010000  1
  C  C79  1  0.39720000  0.67780000  0.35850000  1
  C  C80  1  0.49390000  0.65850000  0.13690000  1
  C  C81  1  0.40600000  0.39990000  0.18070000  1
  C  C82  1  0.70969000  0.06126000  0.91221000  1
  C  C83  1  0.62613000  0.08371000  0.87308000  1
  C  C84  1  0.58219000  0.04294000  0.79583000  1
  C  C85  1  0.49830000  0.06006000  0.75894000  1
  C  C86  1  0.45554000  0.11561000  0.79711000  1
  C  C87  1  0.50410000  0.15830000  0.87370000  1
  C  C88  1  0.59110000  0.14320000  0.91160000  1
  C  C89  1  0.35649000  0.12722000  0.75655000  1
  C  C90  1  0.34458000  0.11514000  0.68640000  1
  C  C91  1  0.24596000  0.11988000  0.64500000  1
  C  C92  1  0.15920000  0.13904000  0.67666000  1
  C  C93  1  0.17450000  0.15310000  0.75020000  1
  C  C94  1  0.26910000  0.14652000  0.78828000  1
  C  C95  1  0.23032000  0.10385000  0.57091000  1
  C  C96  1  0.13300000  0.10576000  0.52964000  1
  C  C97  1  0.04670000  0.12467778  0.56232222  1
  C  C98  1  0.06020000  0.14150000  0.63370000  1
  C  C99  1  0.11757000  0.08658000  0.45213000  1
  C  C100  1  0.21241000  0.10568000  0.43105000  1
  C  C101  1  0.19883000  0.08602000  0.35717000  1
  C  C102  1  0.09093000  0.04781000  0.30448000  1
  C  C103  1  0.99580000  0.02906000  0.32494000  1
  C  C104  1  0.00830000  0.04822000  0.39818000  1
  C  C105  1  0.07575000  0.02830000  0.22565000  1
  C  C106  1  0.96130000  0.35850000  0.68070000  1
  C  C107  1  0.64300000  0.13690000  0.47840000  1
  C  C108  1  0.77470000  0.18070000  0.78080000  1
  C  C109  1  0.55633222  0.99999667  0.00000000  1
  C  C110  1  0.79748000  0.08779000  0.14905000  1
  C  C111  1  0.75305000  0.12692000  0.21063000  1
  C  C112  1  0.78636000  0.20417000  0.24711000  1
  C  C113  1  0.73936000  0.24106000  0.30112000  1
  C  C114  1  0.65843000  0.20289000  0.31850000  1
  C  C115  1  0.63040000  0.12630000  0.28460000  1
  C  C116  1  0.67950000  0.08840000  0.23160000  1
  C  C117  1  0.59994000  0.24345000  0.37067000  1
  C  C118  1  0.65818000  0.31360000  0.42874000  1
  C  C119  1  0.60096000  0.35500000  0.47488000  1
  C  C120  1  0.48254000  0.32334000  0.46238000  1
  C  C121  1  0.42430000  0.24980000  0.40290000  1
  C  C122  1  0.48082000  0.21172000  0.35824000  1
  C  C123  1  0.65941000  0.42909000  0.53294000  1
  C  C124  1  0.60336000  0.47036000  0.57612000  1
  C  C125  1  0.48438889  0.43767778  0.56238889  1
  C  C126  1  0.42650000  0.36630000  0.50780000  1
  C  C127  1  0.66544000  0.54787000  0.63445000  1
  C  C128  1  0.78136000  0.56895000  0.67463000  1
  C  C129  1  0.84166000  0.64283000  0.72885000  1
  C  C130  1  0.78645000  0.69552000  0.74333000  1
  C  C131  1  0.67086000  0.67506000  0.70412000  1
  C  C132  1  0.61012000  0.60182000  0.65004000  1
  C  C133  1  0.85010000  0.77435000  0.80265000  1
  C  C134  1  0.64843000  0.85095000  0.93874000  1
  C  C135  1  0.54242000  0.78937000  0.91629000  1
  C  C136  1  0.53925000  0.75289000  0.95706000  1
  C  C137  1  0.43824000  0.69888000  0.93994000  1
  C  C138  1  0.33993000  0.68150000  0.88439000  1
  C  C139  1  0.34580000  0.71540000  0.84170000  1
  C  C140  1  0.44790000  0.76840000  0.85680000  1
  C  C141  1  0.22927000  0.62933000  0.87278000  1
  C  C142  1  0.22944000  0.57126000  0.88486000  1
  C  C143  1  0.12608000  0.52512000  0.88012000  1
  C  C144  1  0.02016000  0.53762000  0.86096000  1
  C  C145  1  0.02140000  0.59710000  0.84690000  1
  C  C146  1  0.12258000  0.64176000  0.85348000  1
  C  C147  1  0.12647000  0.46706000  0.89615000  1
  C  C148  1  0.02724000  0.42388000  0.89424000  1
  C  C149  1  0.92200000  0.43760000  0.87530000  1
  C  C150  1  0.91870000  0.49220000  0.85850000  1
  C  C151  1  0.03099000  0.36555000  0.91342000  1
  C  C152  1  0.10673000  0.32537000  0.89432000  1
  C  C153  1  0.11281000  0.27115000  0.91398000  1
  C  C154  1  0.04312000  0.25667000  0.95219000  1
  C  C155  1  0.96674000  0.29588000  0.97094000  1
  C  C156  1  0.96008000  0.34996000  0.95178000  1
  C  C157  1  0.04745000  0.19735000  0.97170000  1
  C  C158  1  0.28060000  0.31930000  0.67780000  1
  C  C159  1  0.16460000  0.52160000  0.65850000  1
  C  C160  1  0.99390000  0.21920000  0.39990000  1
  C  C161  1  0.60280000  0.32220000  0.64150000  1
  C  C162  1  0.50610000  0.34150000  0.86310000  1
  C  C163  1  0.59400000  0.60010000  0.81930000  1
  Cl  Cl164  1  0.11896000  0.60876000  0.36572000  1
  Cl  Cl165  1  0.11616000  0.72390000  0.32828000  1
  Cl  Cl166  1  0.50422000  0.92306000  0.56730000  1
  Cl  Cl167  1  0.26871000  0.91302000  0.54941000  1
  Cl  Cl168  1  0.32960000  0.79710000  0.27410000  1
  Cl  Cl169  1  0.19180000  0.89170000  0.27970000  1
  Cl  Cl170  1  0.31400000  0.84390000  0.29750000  1
  Cl  Cl171  1  0.15010000  0.88760000  0.22230000  1
  Cl  Cl172  1  0.56550000  0.07630000  0.02940000  1
  Cl  Cl173  1  0.75324000  0.63428000  0.24304000  1
  Cl  Cl174  1  0.78788000  0.67172000  0.39562000  1
  Cl  Cl175  1  0.93692000  0.43270000  0.35576000  1
  Cl  Cl176  1  0.71930000  0.45059000  0.36361000  1
  Cl  Cl177  1  0.05550000  0.72590000  0.52300000  1
  Cl  Cl178  1  0.91210000  0.72030000  0.61200000  1
  Cl  Cl179  1  0.01650000  0.70250000  0.54640000  1
  Cl  Cl180  1  0.92780000  0.77770000  0.66530000  1
  Cl  Cl181  1  0.53610000  0.97060000  0.04690000  1
  Cl  Cl182  1  0.51020000  0.75696000  0.39124000  1
  Cl  Cl183  1  0.39226000  0.60438000  0.27610000  1
  Cl  Cl184  1  0.58116000  0.64424000  0.07694000  1
  Cl  Cl185  1  0.35569000  0.63639000  0.08698000  1
  Cl  Cl186  1  0.53250000  0.47700000  0.20290000  1
  Cl  Cl187  1  0.30010000  0.38800000  0.10830000  1
  Cl  Cl188  1  0.47010000  0.45360000  0.15610000  1
  Cl  Cl189  1  0.26250000  0.33470000  0.11240000  1
  Cl  Cl190  1  0.48920000  0.95310000  0.92370000  1
  Cl  Cl191  1  0.88104000  0.39124000  0.63428000  1
  Cl  Cl192  1  0.88384000  0.27610000  0.67172000  1
  Cl  Cl193  1  0.49578000  0.07694000  0.43270000  1
  Cl  Cl194  1  0.73129000  0.08698000  0.45059000  1
  Cl  Cl195  1  0.67040000  0.20290000  0.72590000  1
  Cl  Cl196  1  0.80820000  0.10830000  0.72030000  1
  Cl  Cl197  1  0.68600000  0.15610000  0.70250000  1
  Cl  Cl198  1  0.84990000  0.11240000  0.77770000  1
  Cl  Cl199  1  0.43450000  0.92370000  0.97060000  1
  Cl  Cl200  1  0.24676000  0.36572000  0.75696000  1
  Cl  Cl201  1  0.21212000  0.32828000  0.60438000  1
  Cl  Cl202  1  0.06308000  0.56730000  0.64424000  1
  Cl  Cl203  1  0.28070000  0.54941000  0.63639000  1
  Cl  Cl204  1  0.94450000  0.27410000  0.47700000  1
  Cl  Cl205  1  0.08790000  0.27970000  0.38800000  1
  Cl  Cl206  1  0.98350000  0.29750000  0.45360000  1
  Cl  Cl207  1  0.07220000  0.22230000  0.33470000  1
  Cl  Cl208  1  0.46390000  0.02940000  0.95310000  1
  Cl  Cl209  1  0.48980000  0.24304000  0.60876000  1
  Cl  Cl210  1  0.60774000  0.39562000  0.72390000  1
  Cl  Cl211  1  0.41884000  0.35576000  0.92306000  1
  Cl  Cl212  1  0.64431000  0.36361000  0.91302000  1
  Cl  Cl213  1  0.46750000  0.52300000  0.79710000  1
  Cl  Cl214  1  0.69990000  0.61200000  0.89170000  1
  Cl  Cl215  1  0.52990000  0.54640000  0.84390000  1
  Cl  Cl216  1  0.73750000  0.66530000  0.88760000  1
  Cl  Cl217  1  0.51080000  0.04690000  0.07630000  1
  H  H218  1  0.39052000  0.99613000  0.23113000  1
  H  H219  1  0.53032000  0.96695000  0.29355000  1
  H  H220  1  0.52225000  0.80198000  0.09957000  1
  H  H221  1  0.37394000  0.82607000  0.03639000  1
  H  H222  1  0.59673000  0.89658000  0.33476000  1
  H  H223  1  0.88167000  0.83281000  0.22702000  1
  H  H224  1  0.72305000  0.84484000  0.16303000  1
  H  H225  1  0.71140000  0.90841000  0.45046000  1
  H  H226  1  0.02151000  0.87457000  0.46597000  1
  H  H227  1  0.99780000  0.84496000  0.34522000  1
  H  H228  1  0.71315000  0.86778000  0.53294000  1
  H  H229  1  0.73601000  0.90100000  0.65668000  1
  H  H230  1  0.07839000  0.99695000  0.71127000  1
  H  H231  1  0.05737000  0.96468000  0.58835000  1
  H  H232  1  0.97298000  0.64903000  0.33808000  1
  H  H233  1  0.00680000  0.60361000  0.26626000  1
  H  H234  1  0.33923000  0.84015000  0.46739000  1
  H  H235  1  0.34536000  0.82318000  0.53404000  1
  H  H236  1  0.25959000  0.83267000  0.18693000  1
  H  H237  1  0.15476000  0.77585000  0.18768000  1
  H  H238  1  0.16682000  0.77117000  0.20154000  1
  H  H239  1  0.26766000  0.81192000  0.18311000  1
  H  H240  1  0.38189000  0.01294000  0.02109000  1
  H  H241  1  0.41247000  0.96671000  0.94576000  1
  H  H242  1  0.15939000  0.76887000  0.76500000  1
  H  H243  1  0.23677000  0.70645000  0.67340000  1
  H  H244  1  0.42268000  0.90043000  0.70241000  1
  H  H245  1  0.33755000  0.96361000  0.78968000  1
  H  H246  1  0.26197000  0.66523000  0.56183000  1
  H  H247  1  0.65465000  0.77298000  0.60579000  1
  H  H248  1  0.56002000  0.83697000  0.68181000  1
  H  H249  1  0.26094000  0.54954000  0.45795000  1
  H  H250  1  0.55554000  0.53403000  0.40860000  1
  H  H251  1  0.65258000  0.65478000  0.49974000  1
  H  H252  1  0.18021000  0.46706000  0.33484000  1
  H  H253  1  0.07933000  0.34332000  0.24432000  1
  H  H254  1  0.36712000  0.28873000  0.28568000  1
  H  H255  1  0.46902000  0.41165000  0.37633000  1
  H  H256  1  0.39439000  0.23500000  0.00387000  1
  H  H257  1  0.56337000  0.32660000  0.03305000  1
  H  H258  1  0.72027000  0.29759000  0.19802000  1
  H  H259  1  0.54787000  0.21032000  0.17393000  1
  H  H260  1  0.70014000  0.43816000  0.10341000  1
  H  H261  1  0.04886000  0.39421000  0.16719000  1
  H  H262  1  0.87821000  0.31819000  0.15516000  1
  H  H263  1  0.80299000  0.54205000  0.09159000  1
  H  H264  1  0.14694000  0.59140000  0.12543000  1
  H  H265  1  0.15284000  0.50026000  0.15504000  1
  H  H266  1  0.84537000  0.66516000  0.13222000  1
  H  H267  1  0.83501000  0.75568000  0.09900000  1
  H  H268  1  0.08144000  0.71432000  0.00305000  1
  H  H269  1  0.09269000  0.62367000  0.03532000  1
  H  H270  1  0.63490000  0.66192000  0.31095000  1
  H  H271  1  0.74054000  0.73374000  0.33735000  1
  H  H272  1  0.87184000  0.53261000  0.37276000  1
  H  H273  1  0.81132000  0.46596000  0.28914000  1
  H  H274  1  0.07266000  0.81307000  0.64574000  1
  H  H275  1  0.96708000  0.81232000  0.58817000  1
  H  H276  1  0.96528000  0.79846000  0.56963000  1
  H  H277  1  0.08455000  0.81689000  0.62881000  1
  H  H278  1  0.36080000  0.97891000  0.99185000  1
  H  H279  1  0.46671000  0.05424000  0.02095000  1
  H  H280  1  0.32395000  0.68905000  0.35097000  1
  H  H281  1  0.40319000  0.66265000  0.39639000  1
  H  H282  1  0.49908000  0.62724000  0.15985000  1
  H  H283  1  0.52218000  0.71086000  0.17682000  1
  H  H284  1  0.42692000  0.35426000  0.16733000  1
  H  H285  1  0.37891000  0.41183000  0.22415000  1
  H  H286  1  0.39565000  0.43037000  0.22883000  1
  H  H287  1  0.45574000  0.37119000  0.18808000  1
  H  H288  1  0.36895000  0.00815000  0.98706000  1
  H  H289  1  0.44576000  0.97905000  0.03329000  1
  H  H290  1  0.60948000  0.00387000  0.76887000  1
  H  H291  1  0.46968000  0.03305000  0.70645000  1
  H  H292  1  0.47775000  0.19802000  0.90043000  1
  H  H293  1  0.62606000  0.17393000  0.96361000  1
  H  H294  1  0.40327000  0.10342000  0.66524000  1
  H  H295  1  0.11833000  0.16719000  0.77298000  1
  H  H296  1  0.27695000  0.15516000  0.83697000  1
  H  H297  1  0.28860000  0.09159000  0.54954000  1
  H  H298  1  0.97849000  0.12543000  0.53403000  1
  H  H299  1  0.00220000  0.15504000  0.65478000  1
  H  H300  1  0.28685000  0.13222000  0.46706000  1
  H  H301  1  0.26399000  0.09900000  0.34332000  1
  H  H302  1  0.92161000  0.00305000  0.28873000  1
  H  H303  1  0.94263000  0.03532000  0.41165000  1
  H  H304  1  0.02702000  0.35097000  0.66192000  1
  H  H305  1  0.99320000  0.39639000  0.73374000  1
  H  H306  1  0.66077000  0.15985000  0.53261000  1
  H  H307  1  0.65464000  0.17682000  0.46596000  1
  H  H308  1  0.74041000  0.16733000  0.81307000  1
  H  H309  1  0.84524000  0.22415000  0.81232000  1
  H  H310  1  0.83318000  0.22883000  0.79846000  1
  H  H311  1  0.73234000  0.18808000  0.81689000  1
  H  H312  1  0.61811000  0.98706000  0.97891000  1
  H  H313  1  0.58753000  0.03329000  0.05424000  1
  H  H314  1  0.84061000  0.23113000  0.23500000  1
  H  H315  1  0.76323000  0.29355000  0.32660000  1
  H  H316  1  0.57732000  0.09957000  0.29759000  1
  H  H317  1  0.66245000  0.03639000  0.21032000  1
  H  H318  1  0.73803000  0.33477000  0.43817000  1
  H  H319  1  0.34535000  0.22702000  0.39421000  1
  H  H320  1  0.43998000  0.16303000  0.31819000  1
  H  H321  1  0.73906000  0.45046000  0.54205000  1
  H  H322  1  0.44446000  0.46597000  0.59140000  1
  H  H323  1  0.34742000  0.34522000  0.50026000  1
  H  H324  1  0.81979000  0.53294000  0.66516000  1
  H  H325  1  0.92067000  0.65668000  0.75568000  1
  H  H326  1  0.63288000  0.71127000  0.71432000  1
  H  H327  1  0.53098000  0.58835000  0.62367000  1
  H  H328  1  0.60561000  0.76500000  0.99613000  1
  H  H329  1  0.43663000  0.67340000  0.96695000  1
  H  H330  1  0.27973000  0.70241000  0.80198000  1
  H  H331  1  0.45213000  0.78968000  0.82607000  1
  H  H332  1  0.29986000  0.56184000  0.89659000  1
  H  H333  1  0.95114000  0.60579000  0.83281000  1
  H  H334  1  0.12179000  0.68181000  0.84484000  1
  H  H335  1  0.19701000  0.45795000  0.90841000  1
  H  H336  1  0.85306000  0.40860000  0.87457000  1
  H  H337  1  0.84716000  0.49974000  0.84496000  1
  H  H338  1  0.15463000  0.33484000  0.86778000  1
  H  H339  1  0.16499000  0.24432000  0.90100000  1
  H  H340  1  0.91856000  0.28568000  0.99695000  1
  H  H341  1  0.90731000  0.37633000  0.96468000  1
  H  H342  1  0.36510000  0.33808000  0.68905000  1
  H  H343  1  0.25946000  0.26626000  0.66265000  1
  H  H344  1  0.12816000  0.46739000  0.62724000  1
  H  H345  1  0.18868000  0.53404000  0.71086000  1
  H  H346  1  0.92734000  0.18693000  0.35426000  1
  H  H347  1  0.03292000  0.18768000  0.41183000  1
  H  H348  1  0.03472000  0.20154000  0.43037000  1
  H  H349  1  0.91545000  0.18311000  0.37119000  1
  H  H350  1  0.63920000  0.02109000  0.00815000  1
  H  H351  1  0.53329000  0.94576000  0.97905000  1
  H  H352  1  0.67605000  0.31095000  0.64903000  1
  H  H353  1  0.59681000  0.33735000  0.60361000  1
  H  H354  1  0.50092000  0.37276000  0.84015000  1
  H  H355  1  0.47782000  0.28914000  0.82318000  1
  H  H356  1  0.57308000  0.64574000  0.83267000  1
  H  H357  1  0.62109000  0.58817000  0.77585000  1
  H  H358  1  0.60435000  0.56963000  0.77117000  1
  H  H359  1  0.54426000  0.62881000  0.81192000  1
  H  H360  1  0.63105000  0.99185000  0.01294000  1
  H  H361  1  0.55424000  0.02095000  0.96671000  1
  O  O362  1  0.29153000  0.00509000  0.12470000  1
  O  O363  1  0.22579000  0.89205000  0.02282000  1
  O  O364  1  0.84058000  0.94275967  0.78808000  1
  O  O365  1  0.02233000  0.01549067  0.82050000  1
  O  O366  1  0.17076778  0.00000333  1.00000000  1
  O  O367  1  0.00230000  0.06360067  0.10900000  1
  O  O368  1  0.16683000  0.87530000  0.88039000  1
  O  O369  1  0.20297000  0.97718000  0.86923000  1
  O  O370  1  0.05250000  0.21191967  0.15468000  1
  O  O371  1  0.20183000  0.17950067  0.19499000  1
  O  O372  1  0.89330000  0.89100067  0.95460000  1
  O  O373  1  0.28644000  0.11961000  0.99491000  1
  O  O374  1  0.33374000  0.13077000  0.10795000  1
  O  O375  1  0.89782000  0.84531967  0.05724000  1
  O  O376  1  0.00684000  0.80501067  0.98451000  1
  O  O377  1  0.93870000  0.04540067  0.93640000  1
  O  O378  1  0.15942000  0.05724067  0.21192000  1
  O  O379  1  0.94750000  0.78808067  0.84532000  1
  O  O380  1  0.10218000  0.15468067  0.94276000  1
  O  O381  1  0.99770000  0.93639967  0.89100000  1
  O  O382  1  0.10670000  0.10899967  0.04540000  1
  O  O383  1  0.06130000  0.95459967  0.06360000  1
  O  O384  1  0.70847000  0.99491000  0.87530000  1
  O  O385  1  0.77421000  0.10795000  0.97718000  1
  O  O386  1  0.97767000  0.98450967  0.17950000  1
  O  O387  1  0.82923222  0.99999667  0.00000000  1
  O  O388  1  0.83317000  0.12470000  0.11961000  1
  O  O389  1  0.79703000  0.02282000  0.13077000  1
  O  O390  1  0.79817000  0.82049967  0.80501000  1
  O  O391  1  0.71356000  0.88039000  0.00509000  1
  O  O392  1  0.66626000  0.86923000  0.89205000  1
  O  O393  1  0.99316000  0.19498967  0.01549000  1
  Zr  Zr394  1  0.17342000  0.06483000  0.11146000  1
  Zr  Zr395  1  0.06196000  0.88854000  0.95337000  1
  Zr  Zr396  1  0.10859000  0.04663000  0.93517000  1
  Zr  Zr397  1  0.82658000  0.93517000  0.88854000  1
  Zr  Zr398  1  0.93804000  0.11146000  0.04663000  1
  Zr  Zr399  1  0.89141000  0.95337000  0.06483000  1
