# generated using pymatgen
data_Zr3H87C99O16
_symmetry_space_group_name_H-M   'P 1'
_cell_length_a   14.91880000
_cell_length_b   18.21569014
_cell_length_c   18.21569014
_cell_angle_alpha   112.84280898
_cell_angle_beta   105.84302585
_cell_angle_gamma   105.84302585
_symmetry_Int_Tables_number   1
_chemical_formula_structural   Zr3H87C99O16
_chemical_formula_sum   'Zr6 H174 C198 O32'
_cell_volume   3967.50877484
_cell_formula_units_Z   2
loop_
 _symmetry_equiv_pos_site_id
 _symmetry_equiv_pos_as_xyz
  1  'x, y, z'
loop_
 _atom_site_type_symbol
 _atom_site_label
 _atom_site_symmetry_multiplicity
 _atom_site_fract_x
 _atom_site_fract_y
 _atom_site_fract_z
 _atom_site_occupancy
  C  C0  1  0.61390000  0.27943000  0.06127000  1
  C  C1  1  0.65122000  0.37206000  0.07820000  1
  C  C2  1  0.14592000  0.84864000  0.06932000  1
  C  C3  1  0.23585000  0.88553000  0.05232000  1
  C  C4  1  0.00607000  0.72603000  0.04508000  1
  C  C5  1  0.09020000  0.75928000  0.02992000  1
  C  C6  1  0.97384000  0.78218000  0.09744000  1
  C  C7  1  0.72770000  0.75940000  0.12520000  1
  C  C8  1  0.87933000  0.74770000  0.10909000  1
  C  C9  1  0.81882000  0.79310000  0.11886000  1
  C  C10  1  0.84725000  0.66630000  0.10655000  1
  C  C11  1  0.75370000  0.43040000  0.12930000  1
  C  C12  1  0.69590000  0.67840000  0.12160000  1
  C  C13  1  0.75510000  0.63120000  0.11150000  1
  C  C14  1  0.71960000  0.54200000  0.10290000  1
  C  C15  1  0.11600000  0.90470000  0.12330000  1
  C  C16  1  0.78770000  0.51510000  0.14210000  1
  C  C17  1  0.03030000  0.87250000  0.13540000  1
  C  C18  1  0.58370000  0.39820000  0.03940000  1
  C  C19  1  0.61820000  0.48290000  0.05160000  1
  C  C20  1  0.58750000  0.38870000  0.25590000  1
  C  C21  1  0.43760000  0.49370000  0.18240000  1
  C  C22  1  0.63570000  0.53360000  0.27150000  1
  C  C23  1  0.56240000  0.45350000  0.23970000  1
  C  C24  1  0.51110000  0.57420000  0.21410000  1
  C  C25  1  0.60980000  0.59530000  0.26110000  1
  C  C26  1  0.46360000  0.43390000  0.19570000  1
  C  C27  1  0.33230000  0.47330000  0.13860000  1
  C  C28  1  0.96520000  0.48290000  0.91900000  1
  C  C29  1  0.92740000  0.46550000  0.83170000  1
  C  C30  1  0.06130000  0.53200000  0.97160000  1
  C  C31  1  0.09650000  0.54930000  0.05210000  1
  C  C32  1  0.19730000  0.61760000  0.11430000  1
  C  C33  1  0.55263000  0.93873000  0.21816000  1
  C  C34  1  0.57302000  0.92180000  0.29386000  1
  C  C35  1  0.07660000  0.93068000  0.77932000  1
  C  C36  1  0.18353000  0.94768000  0.83321000  1
  C  C37  1  0.96099000  0.95492000  0.68095000  1
  C  C38  1  0.06028000  0.97008000  0.72936000  1
  C  C39  1  0.87640000  0.90256000  0.68474000  1
  C  C40  1  0.60250000  0.87480000  0.63420000  1
  C  C41  1  0.77024000  0.89091000  0.63861000  1
  C  C42  1  0.69996000  0.88114000  0.67424000  1
  C  C43  1  0.74070000  0.89345000  0.55975000  1
  C  C44  1  0.62440000  0.87070000  0.30110000  1
  C  C45  1  0.57430000  0.87840000  0.55680000  1
  C  C46  1  0.64360000  0.88850000  0.51970000  1
  C  C47  1  0.61670000  0.89710000  0.43910000  1
  C  C48  1  0.99270000  0.87670000  0.78140000  1
  C  C49  1  0.64560000  0.85790000  0.37300000  1
  C  C50  1  0.89490000  0.86460000  0.73710000  1
  C  C51  1  0.54430000  0.96060000  0.35880000  1
  C  C52  1  0.56660000  0.94840000  0.43130000  1
  C  C53  1  0.33160000  0.74410000  0.13280000  1
  C  C54  1  0.25520000  0.81760000  0.31130000  1
  C  C55  1  0.36420000  0.72850000  0.26210000  1
  C  C56  1  0.32270000  0.76030000  0.21380000  1
  C  C57  1  0.29700000  0.78590000  0.36010000  1
  C  C58  1  0.34870000  0.73890000  0.33420000  1
  C  C59  1  0.26790000  0.80430000  0.23820000  1
  C  C60  1  0.19370000  0.86140000  0.33470000  1
  C  C61  1  0.04620000  0.08100000  0.56390000  1
  C  C62  1  0.09570000  0.16830000  0.63380000  1
  C  C63  1  0.08970000  0.02840000  0.56040000  1
  C  C64  1  0.04440000  0.94790000  0.49720000  1
  C  C65  1  0.08300000  0.88570000  0.50330000  1
  C  C66  1  0.33447000  0.78184000  0.72057000  1
  C  C67  1  0.27916000  0.70614000  0.62794000  1
  C  C68  1  0.29728000  0.22068000  0.15136000  1
  C  C69  1  0.35032000  0.16679000  0.11447000  1
  C  C70  1  0.28004000  0.31905000  0.27397000  1
  C  C71  1  0.33092000  0.27064000  0.24072000  1
  C  C72  1  0.19166000  0.31526000  0.21782000  1
  C  C73  1  0.96830000  0.36580000  0.24060000  1
  C  C74  1  0.13163000  0.36139000  0.25230000  1
  C  C75  1  0.02572000  0.32576000  0.20690000  1
  C  C76  1  0.18095000  0.44025000  0.33370000  1
  C  C77  1  0.32330000  0.69890000  0.56960000  1
  C  C78  1  0.01750000  0.44320000  0.32160000  1
  C  C79  1  0.12390000  0.48030000  0.36880000  1
  C  C80  1  0.17760000  0.56090000  0.45800000  1
  C  C81  1  0.21130000  0.21860000  0.09530000  1
  C  C82  1  0.27260000  0.62700000  0.48490000  1
  C  C83  1  0.15780000  0.26290000  0.12750000  1
  C  C84  1  0.18550000  0.64120000  0.60180000  1
  C  C85  1  0.13530000  0.56870000  0.51710000  1
  C  C86  1  0.19880000  0.86720000  0.61130000  1
  C  C87  1  0.94390000  0.68870000  0.50630000  1
  C  C88  1  0.10210000  0.73790000  0.46640000  1
  C  C89  1  0.10890000  0.78620000  0.54650000  1
  C  C90  1  0.93690000  0.63990000  0.42580000  1
  C  C91  1  0.01450000  0.66580000  0.40470000  1
  C  C92  1  0.02970000  0.76180000  0.56610000  1
  C  C93  1  0.85900000  0.66530000  0.52670000  1
  C  C94  1  0.48230000  0.43610000  0.51710000  1
  C  C95  1  0.46190000  0.36620000  0.53450000  1
  C  C96  1  0.52930000  0.43960000  0.46800000  1
  C  C97  1  0.54720000  0.50280000  0.45070000  1
  C  C98  1  0.57970000  0.49670000  0.38240000  1
  C  C99  1  0.38610000  0.72057000  0.93873000  1
  C  C100  1  0.34878000  0.62794000  0.92180000  1
  C  C101  1  0.85408000  0.15136000  0.93068000  1
  C  C102  1  0.76415000  0.11447000  0.94768000  1
  C  C103  1  0.99393000  0.27397000  0.95492000  1
  C  C104  1  0.90980000  0.24072000  0.97008000  1
  C  C105  1  0.02616000  0.21782000  0.90256000  1
  C  C106  1  0.27230000  0.24060000  0.87480000  1
  C  C107  1  0.12067000  0.25230000  0.89091000  1
  C  C108  1  0.18118000  0.20690000  0.88114000  1
  C  C109  1  0.15275000  0.33370000  0.89345000  1
  C  C110  1  0.24630000  0.56960000  0.87070000  1
  C  C111  1  0.30410000  0.32160000  0.87840000  1
  C  C112  1  0.24490000  0.36880000  0.88850000  1
  C  C113  1  0.28040000  0.45800000  0.89710000  1
  C  C114  1  0.88400000  0.09530000  0.87670000  1
  C  C115  1  0.21230000  0.48490000  0.85790000  1
  C  C116  1  0.96970000  0.12750000  0.86460000  1
  C  C117  1  0.41630000  0.60180000  0.96060000  1
  C  C118  1  0.38180000  0.51710000  0.94840000  1
  C  C119  1  0.41250000  0.61130000  0.74410000  1
  C  C120  1  0.56240000  0.50630000  0.81760000  1
  C  C121  1  0.36430000  0.46640000  0.72850000  1
  C  C122  1  0.43760000  0.54650000  0.76030000  1
  C  C123  1  0.48890000  0.42580000  0.78590000  1
  C  C124  1  0.39020000  0.40470000  0.73890000  1
  C  C125  1  0.53640000  0.56610000  0.80430000  1
  C  C126  1  0.66770000  0.52670000  0.86140000  1
  C  C127  1  0.03480000  0.51710000  0.08100000  1
  C  C128  1  0.07260000  0.53450000  0.16830000  1
  C  C129  1  0.93870000  0.46800000  0.02840000  1
  C  C130  1  0.90350000  0.45070000  0.94790000  1
  C  C131  1  0.80270000  0.38240000  0.88570000  1
  C  C132  1  0.44737000  0.06127000  0.78184000  1
  C  C133  1  0.42698000  0.07820000  0.70614000  1
  C  C134  1  0.92340000  0.06932000  0.22068000  1
  C  C135  1  0.81647000  0.05232000  0.16679000  1
  C  C136  1  0.03901000  0.04508000  0.31905000  1
  C  C137  1  0.93972000  0.02992000  0.27064000  1
  C  C138  1  0.12360000  0.09744000  0.31526000  1
  C  C139  1  0.39750000  0.12520000  0.36580000  1
  C  C140  1  0.22976000  0.10909000  0.36139000  1
  C  C141  1  0.30004000  0.11886000  0.32576000  1
  C  C142  1  0.25930000  0.10655000  0.44025000  1
  C  C143  1  0.37560000  0.12930000  0.69890000  1
  C  C144  1  0.42570000  0.12160000  0.44320000  1
  C  C145  1  0.35640000  0.11150000  0.48030000  1
  C  C146  1  0.38330000  0.10290000  0.56090000  1
  C  C147  1  0.00730000  0.12330000  0.21860000  1
  C  C148  1  0.35440000  0.14210000  0.62700000  1
  C  C149  1  0.10510000  0.13540000  0.26290000  1
  C  C150  1  0.45570000  0.03940000  0.64120000  1
  C  C151  1  0.43340000  0.05160000  0.56870000  1
  C  C152  1  0.66840000  0.25590000  0.86720000  1
  C  C153  1  0.74480000  0.18240000  0.68870000  1
  C  C154  1  0.63580000  0.27150000  0.73790000  1
  C  C155  1  0.67730000  0.23970000  0.78620000  1
  C  C156  1  0.70300000  0.21410000  0.63990000  1
  C  C157  1  0.65130000  0.26110000  0.66580000  1
  C  C158  1  0.73210000  0.19570000  0.76180000  1
  C  C159  1  0.80630000  0.13860000  0.66530000  1
  C  C160  1  0.95380000  0.91900000  0.43610000  1
  C  C161  1  0.90430000  0.83170000  0.36620000  1
  C  C162  1  0.91030000  0.97160000  0.43960000  1
  C  C163  1  0.95560000  0.05210000  0.50280000  1
  C  C164  1  0.91700000  0.11430000  0.49670000  1
  C  C165  1  0.66553000  0.21816000  0.27943000  1
  C  C166  1  0.72084000  0.29386000  0.37206000  1
  C  C167  1  0.70272000  0.77932000  0.84864000  1
  C  C168  1  0.64968000  0.83321000  0.88553000  1
  C  C169  1  0.71996000  0.68095000  0.72603000  1
  C  C170  1  0.66908000  0.72936000  0.75928000  1
  C  C171  1  0.80834000  0.68474000  0.78218000  1
  C  C172  1  0.03170000  0.63420000  0.75940000  1
  C  C173  1  0.86837000  0.63861000  0.74770000  1
  C  C174  1  0.97428000  0.67424000  0.79310000  1
  C  C175  1  0.81905000  0.55975000  0.66630000  1
  C  C176  1  0.67670000  0.30110000  0.43040000  1
  C  C177  1  0.98250000  0.55680000  0.67840000  1
  C  C178  1  0.87610000  0.51970000  0.63120000  1
  C  C179  1  0.82240000  0.43910000  0.54200000  1
  C  C180  1  0.78870000  0.78140000  0.90470000  1
  C  C181  1  0.72740000  0.37300000  0.51510000  1
  C  C182  1  0.84220000  0.73710000  0.87250000  1
  C  C183  1  0.81450000  0.35880000  0.39820000  1
  C  C184  1  0.86470000  0.43130000  0.48290000  1
  C  C185  1  0.80120000  0.13280000  0.38870000  1
  C  C186  1  0.05610000  0.31130000  0.49370000  1
  C  C187  1  0.89790000  0.26210000  0.53360000  1
  C  C188  1  0.89110000  0.21380000  0.45350000  1
  C  C189  1  0.06310000  0.36010000  0.57420000  1
  C  C190  1  0.98550000  0.33420000  0.59530000  1
  C  C191  1  0.97030000  0.23820000  0.43390000  1
  C  C192  1  0.14100000  0.33470000  0.47330000  1
  C  C193  1  0.51770000  0.56390000  0.48290000  1
  C  C194  1  0.53810000  0.63380000  0.46550000  1
  C  C195  1  0.47070000  0.56040000  0.53200000  1
  C  C196  1  0.45280000  0.49720000  0.54930000  1
  C  C197  1  0.42030000  0.50330000  0.61760000  1
  H  H198  1  0.96980000  0.66410000  0.01950000  1
  H  H199  1  0.10950000  0.72020000  0.99220000  1
  H  H200  1  0.68710000  0.79150000  0.13180000  1
  H  H201  1  0.84010000  0.84850000  0.12130000  1
  H  H202  1  0.88880000  0.63510000  0.10130000  1
  H  H203  1  0.80120000  0.41260000  0.15580000  1
  H  H204  1  0.63350000  0.65520000  0.12590000  1
  H  H205  1  0.15570000  0.96650000  0.15240000  1
  H  H206  1  0.85820000  0.55520000  0.17790000  1
  H  H207  1  0.00910000  0.91230000  0.17000000  1
  H  H208  1  0.51300000  0.35850000  0.00410000  1
  H  H209  1  0.57080000  0.50010000  0.02390000  1
  H  H210  1  0.66230000  0.41260000  0.28870000  1
  H  H211  1  0.55330000  0.37370000  0.29040000  1
  H  H212  1  0.56410000  0.33550000  0.19960000  1
  H  H213  1  0.70620000  0.54700000  0.30130000  1
  H  H214  1  0.49330000  0.61620000  0.20300000  1
  H  H215  1  0.66110000  0.65340000  0.28700000  1
  H  H216  1  0.41160000  0.37710000  0.17360000  1
  H  H217  1  0.32630000  0.52390000  0.13420000  1
  H  H218  1  0.30190000  0.42210000  0.07940000  1
  H  H219  1  0.29520000  0.45970000  0.17200000  1
  H  H220  1  0.85340000  0.42710000  0.80110000  1
  H  H221  1  0.93970000  0.52080000  0.83130000  1
  H  H222  1  0.96330000  0.43600000  0.80150000  1
  H  H223  1  0.10680000  0.55610000  0.95080000  1
  H  H224  1  0.21220000  0.62200000  0.17200000  1
  H  H225  1  0.24860000  0.60370000  0.09430000  1
  H  H226  1  0.20110000  0.67380000  0.11900000  1
  H  H227  1  0.95030000  0.98050000  0.64460000  1
  H  H228  1  0.11730000  0.00780000  0.72800000  1
  H  H229  1  0.55530000  0.86820000  0.65970000  1
  H  H230  1  0.71880000  0.87870000  0.72720000  1
  H  H231  1  0.78750000  0.89870000  0.53380000  1
  H  H232  1  0.64540000  0.84420000  0.25680000  1
  H  H233  1  0.50760000  0.87410000  0.52930000  1
  H  H234  1  0.00330000  0.84760000  0.81410000  1
  H  H235  1  0.68030000  0.82210000  0.37730000  1
  H  H236  1  0.83910000  0.83000000  0.74230000  1
  H  H237  1  0.50890000  0.99590000  0.35440000  1
  H  H238  1  0.54690000  0.97610000  0.47620000  1
  H  H239  1  0.37360000  0.71130000  0.12390000  1
  H  H240  1  0.26290000  0.70960000  0.08330000  1
  H  H241  1  0.36450000  0.80040000  0.13590000  1
  H  H242  1  0.40490000  0.69870000  0.24570000  1
  H  H243  1  0.29030000  0.79700000  0.41320000  1
  H  H244  1  0.37410000  0.71300000  0.36640000  1
  H  H245  1  0.23800000  0.82640000  0.20350000  1
  H  H246  1  0.19210000  0.86580000  0.38970000  1
  H  H247  1  0.22250000  0.92060000  0.34270000  1
  H  H248  1  0.12320000  0.82800000  0.28770000  1
  H  H249  1  0.05230000  0.19890000  0.62600000  1
  H  H250  1  0.10840000  0.16870000  0.68950000  1
  H  H251  1  0.16180000  0.19850000  0.63450000  1
  H  H252  1  0.15600000  0.04920000  0.60530000  1
  H  H253  1  0.04020000  0.82800000  0.45000000  1
  H  H254  1  0.15430000  0.90570000  0.50940000  1
  H  H255  1  0.08210000  0.88100000  0.55480000  1
  H  H256  1  0.30570000  0.35540000  0.33590000  1
  H  H257  1  0.38930000  0.27200000  0.27980000  1
  H  H258  1  0.89560000  0.34030000  0.20850000  1
  H  H259  1  0.99160000  0.27280000  0.15150000  1
  H  H260  1  0.25370000  0.46620000  0.36490000  1
  H  H261  1  0.38860000  0.74320000  0.58740000  1
  H  H262  1  0.97830000  0.47070000  0.34480000  1
  H  H263  1  0.18920000  0.18590000  0.03350000  1
  H  H264  1  0.30300000  0.62270000  0.44480000  1
  H  H265  1  0.09680000  0.25770000  0.08770000  1
  H  H266  1  0.15450000  0.64560000  0.64150000  1
  H  H267  1  0.07070000  0.52380000  0.49990000  1
  H  H268  1  0.24970000  0.87610000  0.58740000  1
  H  H269  1  0.17960000  0.91670000  0.62630000  1
  H  H270  1  0.22860000  0.86410000  0.66450000  1
  H  H271  1  0.15920000  0.75430000  0.45300000  1
  H  H272  1  0.87710000  0.58680000  0.38380000  1
  H  H273  1  0.00770000  0.63360000  0.34660000  1
  H  H274  1  0.03450000  0.79650000  0.62290000  1
  H  H275  1  0.80240000  0.61030000  0.47610000  1
  H  H276  1  0.87980000  0.65730000  0.57790000  1
  H  H277  1  0.83550000  0.71230000  0.54030000  1
  H  H278  1  0.42630000  0.37400000  0.57290000  1
  H  H279  1  0.41890000  0.31050000  0.47920000  1
  H  H280  1  0.52730000  0.36550000  0.56400000  1
  H  H281  1  0.55070000  0.39470000  0.44390000  1
  H  H282  1  0.59020000  0.55000000  0.37800000  1
  H  H283  1  0.64490000  0.49060000  0.39630000  1
  H  H284  1  0.52730000  0.44520000  0.32620000  1
  H  H285  1  0.03020000  0.33590000  0.98050000  1
  H  H286  1  0.89050000  0.27980000  0.00780000  1
  H  H287  1  0.31290000  0.20850000  0.86820000  1
  H  H288  1  0.15990000  0.15150000  0.87870000  1
  H  H289  1  0.11120000  0.36490000  0.89870000  1
  H  H290  1  0.19880000  0.58740000  0.84420000  1
  H  H291  1  0.36650000  0.34480000  0.87410000  1
  H  H292  1  0.84430000  0.03350000  0.84760000  1
  H  H293  1  0.14180000  0.44480000  0.82210000  1
  H  H294  1  0.99090000  0.08770000  0.83000000  1
  H  H295  1  0.48700000  0.64150000  0.99590000  1
  H  H296  1  0.42920000  0.49990000  0.97610000  1
  H  H297  1  0.33770000  0.58740000  0.71130000  1
  H  H298  1  0.44670000  0.62630000  0.70960000  1
  H  H299  1  0.43590000  0.66450000  0.80040000  1
  H  H300  1  0.29380000  0.45300000  0.69870000  1
  H  H301  1  0.50670000  0.38380000  0.79700000  1
  H  H302  1  0.33890000  0.34660000  0.71300000  1
  H  H303  1  0.58840000  0.62290000  0.82640000  1
  H  H304  1  0.67370000  0.47610000  0.86580000  1
  H  H305  1  0.69810000  0.57790000  0.92060000  1
  H  H306  1  0.70480000  0.54030000  0.82800000  1
  H  H307  1  0.14660000  0.57290000  0.19890000  1
  H  H308  1  0.06030000  0.47920000  0.16870000  1
  H  H309  1  0.03670000  0.56400000  0.19850000  1
  H  H310  1  0.89320000  0.44390000  0.04920000  1
  H  H311  1  0.78780000  0.37800000  0.82800000  1
  H  H312  1  0.75140000  0.39630000  0.90570000  1
  H  H313  1  0.79890000  0.32620000  0.88100000  1
  H  H314  1  0.04970000  0.01950000  0.35540000  1
  H  H315  1  0.88270000  0.99220000  0.27200000  1
  H  H316  1  0.44470000  0.13180000  0.34030000  1
  H  H317  1  0.28120000  0.12130000  0.27280000  1
  H  H318  1  0.21250000  0.10130000  0.46620000  1
  H  H319  1  0.35460000  0.15580000  0.74320000  1
  H  H320  1  0.49240000  0.12590000  0.47070000  1
  H  H321  1  0.99670000  0.15240000  0.18590000  1
  H  H322  1  0.31970000  0.17790000  0.62270000  1
  H  H323  1  0.16090000  0.17000000  0.25770000  1
  H  H324  1  0.49110000  0.00410000  0.64560000  1
  H  H325  1  0.45310000  0.02390000  0.52380000  1
  H  H326  1  0.62640000  0.28870000  0.87610000  1
  H  H327  1  0.73710000  0.29040000  0.91670000  1
  H  H328  1  0.63550000  0.19960000  0.86410000  1
  H  H329  1  0.59510000  0.30130000  0.75430000  1
  H  H330  1  0.70970000  0.20300000  0.58680000  1
  H  H331  1  0.62590000  0.28700000  0.63360000  1
  H  H332  1  0.76200000  0.17360000  0.79650000  1
  H  H333  1  0.80790000  0.13420000  0.61030000  1
  H  H334  1  0.77750000  0.07940000  0.65730000  1
  H  H335  1  0.87680000  0.17200000  0.71230000  1
  H  H336  1  0.94770000  0.80110000  0.37400000  1
  H  H337  1  0.89160000  0.83130000  0.31050000  1
  H  H338  1  0.83820000  0.80150000  0.36550000  1
  H  H339  1  0.84400000  0.95080000  0.39470000  1
  H  H340  1  0.95980000  0.17200000  0.55000000  1
  H  H341  1  0.84570000  0.09430000  0.49060000  1
  H  H342  1  0.91790000  0.11900000  0.44520000  1
  H  H343  1  0.69430000  0.64460000  0.66410000  1
  H  H344  1  0.61070000  0.72800000  0.72020000  1
  H  H345  1  0.10440000  0.65970000  0.79150000  1
  H  H346  1  0.00840000  0.72720000  0.84850000  1
  H  H347  1  0.74630000  0.53380000  0.63510000  1
  H  H348  1  0.61140000  0.25680000  0.41260000  1
  H  H349  1  0.02170000  0.52930000  0.65520000  1
  H  H350  1  0.81080000  0.81410000  0.96650000  1
  H  H351  1  0.69700000  0.37730000  0.55520000  1
  H  H352  1  0.90320000  0.74230000  0.91230000  1
  H  H353  1  0.84550000  0.35440000  0.35850000  1
  H  H354  1  0.92930000  0.47620000  0.50010000  1
  H  H355  1  0.75030000  0.12390000  0.41260000  1
  H  H356  1  0.82040000  0.08330000  0.37370000  1
  H  H357  1  0.77140000  0.13590000  0.33550000  1
  H  H358  1  0.84080000  0.24570000  0.54700000  1
  H  H359  1  0.12290000  0.41320000  0.61620000  1
  H  H360  1  0.99230000  0.36640000  0.65340000  1
  H  H361  1  0.96550000  0.20350000  0.37710000  1
  H  H362  1  0.19760000  0.38970000  0.52390000  1
  H  H363  1  0.12020000  0.34270000  0.42210000  1
  H  H364  1  0.16450000  0.28770000  0.45970000  1
  H  H365  1  0.57370000  0.62600000  0.42710000  1
  H  H366  1  0.58110000  0.68950000  0.52080000  1
  H  H367  1  0.47270000  0.63450000  0.43600000  1
  H  H368  1  0.44930000  0.60530000  0.55610000  1
  H  H369  1  0.40980000  0.45000000  0.62200000  1
  H  H370  1  0.35510000  0.50940000  0.60370000  1
  H  H371  1  0.47270000  0.55480000  0.67380000  1
  O  O372  1  0.51814000  0.22966000  0.01168000  1
  O  O373  1  0.67991000  0.25792000  0.09685000  1
  O  O374  1  0.31061000  0.95814000  0.11555000  1
  O  O375  1  0.22908000  0.84272000  0.97552000  1
  O  O376  1  0.56256000  0.08763000  0.95955000  1
  O  O377  1  0.35823222  0.99999667  1.00000000  1
  O  O378  1  0.50646000  0.98832000  0.21798000  1
  O  O379  1  0.58306000  0.90315000  0.16107000  1
  O  O380  1  0.19506000  0.88445000  0.84259000  1
  O  O381  1  0.25356000  0.02448000  0.86720000  1
  O  O382  1  0.60301000  0.04045000  0.12808000  1
  O  O383  1  0.28848000  0.78202000  0.77034000  1
  O  O384  1  0.42199000  0.83893000  0.74208000  1
  O  O385  1  0.35247000  0.15741000  0.04186000  1
  O  O386  1  0.38636000  0.13280000  0.15728000  1
  O  O387  1  0.47493000  0.87192000  0.91237000  1
  O  O388  1  0.48186000  0.77034000  0.98832000  1
  O  O389  1  0.32009000  0.74208000  0.90315000  1
  O  O390  1  0.68939000  0.04186000  0.88445000  1
  O  O391  1  0.77092000  0.15728000  0.02448000  1
  O  O392  1  0.43744000  0.91237000  0.04045000  1
  O  O393  1  0.64176778  0.00000333  0.00000000  1
  O  O394  1  0.49354000  0.01168000  0.78202000  1
  O  O395  1  0.41694000  0.09685000  0.83893000  1
  O  O396  1  0.80494000  0.11555000  0.15741000  1
  O  O397  1  0.74644000  0.97552000  0.13280000  1
  O  O398  1  0.39699000  0.95955000  0.87192000  1
  O  O399  1  0.71152000  0.21798000  0.22966000  1
  O  O400  1  0.57801000  0.16107000  0.25792000  1
  O  O401  1  0.64753000  0.84259000  0.95814000  1
  O  O402  1  0.61364000  0.86720000  0.84272000  1
  O  O403  1  0.52507000  0.12808000  0.08763000  1
  Zr  Zr404  1  0.41983000  0.08896000  0.95846000  1
  Zr  Zr405  1  0.46137000  0.04154000  0.13050000  1
  Zr  Zr406  1  0.33087000  0.86950000  0.91104000  1
  Zr  Zr407  1  0.58017000  0.91104000  0.04154000  1
  Zr  Zr408  1  0.53863000  0.95846000  0.86950000  1
  Zr  Zr409  1  0.66913000  0.13050000  0.08896000  1
