# generated using pymatgen
data_Zr3H81(C24O5)4
_symmetry_space_group_name_H-M   'P 1'
_cell_length_a   14.93290000
_cell_length_b   18.21725150
_cell_length_c   18.21725150
_cell_angle_alpha   112.83085881
_cell_angle_beta   105.85699861
_cell_angle_gamma   105.85699861
_symmetry_Int_Tables_number   1
_chemical_formula_structural   Zr3H81(C24O5)4
_chemical_formula_sum   'Zr6 H162 C192 O40'
_cell_volume   3971.38937294
_cell_formula_units_Z   2
loop_
 _symmetry_equiv_pos_site_id
 _symmetry_equiv_pos_as_xyz
  1  'x, y, z'
loop_
 _atom_site_type_symbol
 _atom_site_label
 _atom_site_symmetry_multiplicity
 _atom_site_fract_x
 _atom_site_fract_y
 _atom_site_fract_z
 _atom_site_occupancy
  C  C0  1  0.44628000  0.78154000  0.06010000  1
  C  C1  1  0.42437000  0.70518000  0.07583000  1
  C  C2  1  0.45190000  0.63930000  0.03590000  1
  C  C3  1  0.43080000  0.56720000  0.04920000  1
  C  C4  1  0.38132000  0.56022000  0.10154000  1
  C  C5  1  0.35340000  0.62610000  0.14090000  1
  C  C6  1  0.37450000  0.69772000  0.12778000  1
  C  C7  1  0.35503000  0.47990000  0.11019000  1
  C  C8  1  0.42423000  0.44271000  0.12038000  1
  C  C9  1  0.39662000  0.36525000  0.12371000  1
  C  C10  1  0.29945000  0.32451000  0.11714000  1
  C  C11  1  0.22779000  0.36008000  0.10689000  1
  C  C12  1  0.25743000  0.43837000  0.10402000  1
  C  C13  1  0.12264000  0.31433000  0.09579000  1
  C  C14  1  0.10500000  0.26313000  0.13487000  1
  C  C15  1  0.00590000  0.21751000  0.12259000  1
  C  C16  1  0.92302000  0.21963000  0.06893000  1
  C  C17  1  0.93837000  0.26974000  0.02857000  1
  C  C18  1  0.03806000  0.31822000  0.04396000  1
  C  C19  1  0.81644000  0.16599000  0.05213000  1
  C  C20  1  0.96360000  0.43330000  0.92060000  1
  C  C21  1  0.05730000  0.49680000  0.95640000  1
  C  C22  1  0.09040000  0.56380000  0.03460000  1
  C  C23  1  0.93640000  0.36390000  0.83730000  1
  C  C24  1  0.72710000  0.74370000  0.17120000  1
  C  C25  1  0.68190000  0.76760000  0.22080000  1
  C  C26  1  0.65970000  0.72490000  0.26230000  1
  C  C27  1  0.67690000  0.65550000  0.24620000  1
  C  C28  1  0.73330000  0.63850000  0.20440000  1
  C  C29  1  0.66530000  0.84690000  0.24050000  1
  C  C30  1  0.75620000  0.68130000  0.16430000  1
  C  C31  1  0.76500000  0.56700000  0.19700000  1
  C  C32  1  0.38618000  0.93990000  0.72144000  1
  C  C33  1  0.34854000  0.92417000  0.62935000  1
  C  C34  1  0.41600000  0.96410000  0.60340000  1
  C  C35  1  0.38160000  0.95080000  0.51800000  1
  C  C36  1  0.27978000  0.89846000  0.45868000  1
  C  C37  1  0.21250000  0.85910000  0.48520000  1
  C  C38  1  0.24672000  0.87222000  0.56994000  1
  C  C39  1  0.24484000  0.88981000  0.36971000  1
  C  C40  1  0.30385000  0.87962000  0.32233000  1
  C  C41  1  0.27291000  0.87629000  0.24154000  1
  C  C42  1  0.18231000  0.88286000  0.20737000  1
  C  C43  1  0.12090000  0.89311000  0.25319000  1
  C  C44  1  0.15341000  0.89598000  0.33435000  1
  C  C45  1  0.02685000  0.90421000  0.21854000  1
  C  C46  1  0.97013000  0.86513000  0.12826000  1
  C  C47  1  0.88331000  0.87741000  0.09492000  1
  C  C48  1  0.85409000  0.93107000  0.15070000  1
  C  C49  1  0.90980000  0.97143000  0.24117000  1
  C  C50  1  0.99410000  0.95604000  0.27426000  1
  C  C51  1  0.76431000  0.94787000  0.11386000  1
  C  C52  1  0.66474000  0.27856000  0.21846000  1
  C  C53  1  0.71919000  0.37065000  0.29482000  1
  C  C54  1  0.81260000  0.39660000  0.36070000  1
  C  C55  1  0.86360000  0.48200000  0.43280000  1
  C  C56  1  0.82110000  0.54132000  0.43978000  1
  C  C57  1  0.72730000  0.51480000  0.37390000  1
  C  C58  1  0.67678000  0.43006000  0.30228000  1
  C  C59  1  0.87513000  0.63029000  0.52010000  1
  C  C60  1  0.98152000  0.67767000  0.55729000  1
  C  C61  1  0.03137000  0.75846000  0.63475000  1
  C  C62  1  0.97494000  0.79263000  0.67549000  1
  C  C63  1  0.86771000  0.74681000  0.63992000  1
  C  C64  1  0.81906000  0.66565000  0.56163000  1
  C  C65  1  0.80831000  0.78146000  0.68567000  1
  C  C66  1  0.84187000  0.87174000  0.73687000  1
  C  C67  1  0.78839000  0.90508000  0.78249000  1
  C  C68  1  0.70339000  0.84930000  0.78037000  1
  C  C69  1  0.66863000  0.75883000  0.73026000  1
  C  C70  1  0.71984000  0.72574000  0.68178000  1
  C  C71  1  0.65045000  0.88614000  0.83401000  1
  C  C72  1  0.03640000  0.56670000  0.07940000  1
  C  C73  1  0.94270000  0.50320000  0.04360000  1
  C  C74  1  0.90960000  0.43620000  0.96540000  1
  C  C75  1  0.06360000  0.63610000  0.16270000  1
  C  C76  1  0.04300000  0.07940000  0.51270000  1
  C  C77  1  0.10090000  0.04360000  0.54040000  1
  C  C78  1  0.05580000  0.96540000  0.52920000  1
  C  C79  1  0.09910000  0.16270000  0.52660000  1
  C  C80  1  0.55590000  0.82880000  0.57250000  1
  C  C81  1  0.46110000  0.77920000  0.54680000  1
  C  C82  1  0.39740000  0.73770000  0.46260000  1
  C  C83  1  0.43070000  0.75380000  0.40930000  1
  C  C84  1  0.52890000  0.79560000  0.43410000  1
  C  C85  1  0.42480000  0.75950000  0.60640000  1
  C  C86  1  0.59190000  0.83570000  0.51700000  1
  C  C87  1  0.56800000  0.80300000  0.37000000  1
  C  C88  1  0.95700000  0.92060000  0.48730000  1
  C  C89  1  0.89910000  0.95640000  0.45960000  1
  C  C90  1  0.94420000  0.03460000  0.47080000  1
  C  C91  1  0.90090000  0.83730000  0.47340000  1
  C  C92  1  0.53030000  0.48730000  0.56670000  1
  C  C93  1  0.56050000  0.45960000  0.50320000  1
  C  C94  1  0.52660000  0.47080000  0.43620000  1
  C  C95  1  0.57250000  0.47340000  0.63610000  1
  C  C96  1  0.98340000  0.42750000  0.25630000  1
  C  C97  1  0.91430000  0.45320000  0.23240000  1
  C  C98  1  0.93480000  0.53740000  0.27510000  1
  C  C99  1  0.02140000  0.59070000  0.34450000  1
  C  C100  1  0.09480000  0.56590000  0.36150000  1
  C  C101  1  0.81840000  0.39360000  0.15310000  1
  C  C102  1  0.07490000  0.48300000  0.31870000  1
  C  C103  1  0.19800000  0.63000000  0.43300000  1
  C  C104  1  0.46970000  0.51270000  0.43330000  1
  C  C105  1  0.43950000  0.54040000  0.49680000  1
  C  C106  1  0.47340000  0.52920000  0.56380000  1
  C  C107  1  0.42750000  0.52660000  0.36390000  1
  C  C108  1  0.55372000  0.21846000  0.93990000  1
  C  C109  1  0.57563000  0.29482000  0.92417000  1
  C  C110  1  0.54810000  0.36070000  0.96410000  1
  C  C111  1  0.56920000  0.43280000  0.95080000  1
  C  C112  1  0.61868000  0.43978000  0.89846000  1
  C  C113  1  0.64660000  0.37390000  0.85910000  1
  C  C114  1  0.62550000  0.30228000  0.87222000  1
  C  C115  1  0.64497000  0.52010000  0.88981000  1
  C  C116  1  0.57577000  0.55729000  0.87962000  1
  C  C117  1  0.60338000  0.63475000  0.87629000  1
  C  C118  1  0.70055000  0.67549000  0.88286000  1
  C  C119  1  0.77221000  0.63992000  0.89311000  1
  C  C120  1  0.74257000  0.56163000  0.89598000  1
  C  C121  1  0.87736000  0.68567000  0.90421000  1
  C  C122  1  0.89500000  0.73687000  0.86513000  1
  C  C123  1  0.99410000  0.78249000  0.87741000  1
  C  C124  1  0.07698000  0.78037000  0.93107000  1
  C  C125  1  0.06163000  0.73026000  0.97143000  1
  C  C126  1  0.96194000  0.68178000  0.95604000  1
  C  C127  1  0.18356000  0.83401000  0.94787000  1
  C  C128  1  0.27290000  0.25630000  0.82880000  1
  C  C129  1  0.31810000  0.23240000  0.77920000  1
  C  C130  1  0.34030000  0.27510000  0.73770000  1
  C  C131  1  0.32310000  0.34450000  0.75380000  1
  C  C132  1  0.26670000  0.36150000  0.79560000  1
  C  C133  1  0.33470000  0.15310000  0.75950000  1
  C  C134  1  0.24380000  0.31870000  0.83570000  1
  C  C135  1  0.23500000  0.43300000  0.80300000  1
  C  C136  1  0.61382000  0.06010000  0.27856000  1
  C  C137  1  0.65146000  0.07583000  0.37065000  1
  C  C138  1  0.58400000  0.03590000  0.39660000  1
  C  C139  1  0.61840000  0.04920000  0.48200000  1
  C  C140  1  0.72022000  0.10154000  0.54132000  1
  C  C141  1  0.78750000  0.14090000  0.51480000  1
  C  C142  1  0.75328000  0.12778000  0.43006000  1
  C  C143  1  0.75516000  0.11019000  0.63029000  1
  C  C144  1  0.69615000  0.12038000  0.67767000  1
  C  C145  1  0.72709000  0.12371000  0.75846000  1
  C  C146  1  0.81769000  0.11714000  0.79263000  1
  C  C147  1  0.87910000  0.10689000  0.74681000  1
  C  C148  1  0.84659000  0.10402000  0.66565000  1
  C  C149  1  0.97315000  0.09579000  0.78146000  1
  C  C150  1  0.02987000  0.13487000  0.87174000  1
  C  C151  1  0.11669000  0.12259000  0.90508000  1
  C  C152  1  0.14591000  0.06893000  0.84930000  1
  C  C153  1  0.09020000  0.02857000  0.75883000  1
  C  C154  1  0.00590000  0.04396000  0.72574000  1
  C  C155  1  0.23569000  0.05213000  0.88614000  1
  C  C156  1  0.33526000  0.72144000  0.78154000  1
  C  C157  1  0.28081000  0.62935000  0.70518000  1
  C  C158  1  0.18740000  0.60340000  0.63930000  1
  C  C159  1  0.13640000  0.51800000  0.56720000  1
  C  C160  1  0.17890000  0.45868000  0.56022000  1
  C  C161  1  0.27270000  0.48520000  0.62610000  1
  C  C162  1  0.32322000  0.56994000  0.69772000  1
  C  C163  1  0.12487000  0.36971000  0.47990000  1
  C  C164  1  0.01848000  0.32233000  0.44271000  1
  C  C165  1  0.96863000  0.24154000  0.36525000  1
  C  C166  1  0.02506000  0.20737000  0.32451000  1
  C  C167  1  0.13229000  0.25319000  0.36008000  1
  C  C168  1  0.18094000  0.33435000  0.43837000  1
  C  C169  1  0.19169000  0.21854000  0.31433000  1
  C  C170  1  0.15813000  0.12826000  0.26313000  1
  C  C171  1  0.21161000  0.09492000  0.21751000  1
  C  C172  1  0.29661000  0.15070000  0.21963000  1
  C  C173  1  0.33137000  0.24117000  0.26974000  1
  C  C174  1  0.28016000  0.27426000  0.31822000  1
  C  C175  1  0.34955000  0.11386000  0.16599000  1
  C  C176  1  0.44410000  0.17120000  0.42750000  1
  C  C177  1  0.53890000  0.22080000  0.45320000  1
  C  C178  1  0.60260000  0.26230000  0.53740000  1
  C  C179  1  0.56930000  0.24620000  0.59070000  1
  C  C180  1  0.47110000  0.20440000  0.56590000  1
  C  C181  1  0.57520000  0.24050000  0.39360000  1
  C  C182  1  0.40810000  0.16430000  0.48300000  1
  C  C183  1  0.43200000  0.19700000  0.63000000  1
  C  C184  1  0.01660000  0.57250000  0.74370000  1
  C  C185  1  0.08570000  0.54680000  0.76760000  1
  C  C186  1  0.06520000  0.46260000  0.72490000  1
  C  C187  1  0.97860000  0.40930000  0.65550000  1
  C  C188  1  0.90520000  0.43410000  0.63850000  1
  C  C189  1  0.18160000  0.60640000  0.84690000  1
  C  C190  1  0.92510000  0.51700000  0.68130000  1
  C  C191  1  0.80200000  0.37000000  0.56700000  1
  H  H192  1  0.48540000  0.64300000  0.99920000  1
  H  H193  1  0.45090000  0.52240000  0.02200000  1
  H  H194  1  0.31950000  0.62230000  0.17740000  1
  H  H195  1  0.35430000  0.74250000  0.15500000  1
  H  H196  1  0.49110000  0.47060000  0.12510000  1
  H  H197  1  0.44420000  0.34020000  0.13040000  1
  H  H198  1  0.28110000  0.27150000  0.11960000  1
  H  H199  1  0.21010000  0.46380000  0.09770000  1
  H  H200  1  0.16130000  0.25910000  0.17040000  1
  H  H201  1  0.99560000  0.18480000  0.15170000  1
  H  H202  1  0.88140000  0.27100000  0.99080000  1
  H  H203  1  0.04870000  0.35480000  0.01860000  1
  H  H204  1  0.09950000  0.49350000  0.92580000  1
  H  H205  1  0.15560000  0.61130000  0.05910000  1
  H  H206  1  0.99090000  0.37840000  0.81830000  1
  H  H207  1  0.92770000  0.31010000  0.84040000  1
  H  H208  1  0.87180000  0.35480000  0.79510000  1
  H  H209  1  0.73950000  0.77220000  0.13880000  1
  H  H210  1  0.63160000  0.74470000  0.30310000  1
  H  H211  1  0.64850000  0.61700000  0.26520000  1
  H  H212  1  0.63000000  0.85410000  0.27920000  1
  H  H213  1  0.73180000  0.89830000  0.27010000  1
  H  H214  1  0.62290000  0.84190000  0.18550000  1
  H  H215  1  0.79330000  0.66720000  0.13040000  1
  H  H216  1  0.74190000  0.54250000  0.23080000  1
  H  H217  1  0.73400000  0.52190000  0.13500000  1
  H  H218  1  0.84010000  0.59150000  0.22020000  1
  H  H219  1  0.48620000  0.00080000  0.64380000  1
  H  H220  1  0.42890000  0.97800000  0.50040000  1
  H  H221  1  0.14210000  0.82260000  0.44490000  1
  H  H222  1  0.19930000  0.84500000  0.58750000  1
  H  H223  1  0.36600000  0.87490000  0.34550000  1
  H  H224  1  0.31380000  0.86960000  0.20980000  1
  H  H225  1  0.16150000  0.88040000  0.15190000  1
  H  H226  1  0.11240000  0.90230000  0.36610000  1
  H  H227  1  0.99090000  0.82960000  0.08870000  1
  H  H228  1  0.84390000  0.84830000  0.03310000  1
  H  H229  1  0.89060000  0.00920000  0.28020000  1
  H  H230  1  0.03010000  0.98140000  0.33620000  1
  H  H231  1  0.84240000  0.35620000  0.35700000  1
  H  H232  1  0.92850000  0.49960000  0.47760000  1
  H  H233  1  0.69720000  0.55510000  0.37770000  1
  H  H234  1  0.61180000  0.41250000  0.25750000  1
  H  H235  1  0.02050000  0.65450000  0.52940000  1
  H  H236  1  0.10400000  0.79020000  0.65980000  1
  H  H237  1  0.00960000  0.84810000  0.72850000  1
  H  H238  1  0.74630000  0.63390000  0.53620000  1
  H  H239  1  0.90220000  0.91130000  0.74090000  1
  H  H240  1  0.81080000  0.96690000  0.81520000  1
  H  H241  1  0.61040000  0.71980000  0.72900000  1
  H  H242  1  0.69390000  0.66380000  0.64520000  1
  H  H243  1  0.90050000  0.50650000  0.07420000  1
  H  H244  1  0.84440000  0.38870000  0.94090000  1
  H  H245  1  0.00910000  0.62160000  0.18170000  1
  H  H246  1  0.07230000  0.68990000  0.15960000  1
  H  H247  1  0.12820000  0.64520000  0.20490000  1
  H  H248  1  0.17370000  0.07420000  0.56770000  1
  H  H249  1  0.09650000  0.94090000  0.55220000  1
  H  H250  1  0.17260000  0.18170000  0.56010000  1
  H  H251  1  0.08730000  0.15960000  0.46970000  1
  H  H252  1  0.07670000  0.20490000  0.55970000  1
  H  H253  1  0.60070000  0.86120000  0.63340000  1
  H  H254  1  0.32850000  0.69690000  0.44160000  1
  H  H255  1  0.38330000  0.73480000  0.35180000  1
  H  H256  1  0.35080000  0.72080000  0.57490000  1
  H  H257  1  0.46170000  0.72990000  0.62820000  1
  H  H258  1  0.43740000  0.81450000  0.65640000  1
  H  H259  1  0.66290000  0.86960000  0.53680000  1
  H  H260  1  0.51110000  0.76920000  0.31170000  1
  H  H261  1  0.59900000  0.86500000  0.38690000  1
  H  H262  1  0.61990000  0.77980000  0.37130000  1
  H  H263  1  0.82630000  0.92580000  0.43230000  1
  H  H264  1  0.90350000  0.05910000  0.44780000  1
  H  H265  1  0.82740000  0.81830000  0.43990000  1
  H  H266  1  0.91270000  0.84040000  0.53030000  1
  H  H267  1  0.92330000  0.79510000  0.44030000  1
  H  H268  1  0.60600000  0.43230000  0.50650000  1
  H  H269  1  0.54430000  0.44780000  0.38870000  1
  H  H270  1  0.61250000  0.43990000  0.62160000  1
  H  H271  1  0.61760000  0.53030000  0.68990000  1
  H  H272  1  0.51700000  0.44030000  0.64520000  1
  H  H273  1  0.96730000  0.36660000  0.22780000  1
  H  H274  1  0.88690000  0.55840000  0.25530000  1
  H  H275  1  0.03150000  0.64820000  0.38300000  1
  H  H276  1  0.77590000  0.42510000  0.14590000  1
  H  H277  1  0.83350000  0.37180000  0.10170000  1
  H  H278  1  0.78100000  0.34360000  0.15810000  1
  H  H279  1  0.12610000  0.46320000  0.33280000  1
  H  H280  1  0.19940000  0.68830000  0.45750000  1
  H  H281  1  0.21210000  0.61310000  0.47810000  1
  H  H282  1  0.24860000  0.62870000  0.40850000  1
  H  H283  1  0.39400000  0.56770000  0.49350000  1
  H  H284  1  0.45570000  0.55220000  0.61130000  1
  H  H285  1  0.38750000  0.56010000  0.37840000  1
  H  H286  1  0.38240000  0.46970000  0.31010000  1
  H  H287  1  0.48300000  0.55970000  0.35480000  1
  H  H288  1  0.51460000  0.35700000  0.00080000  1
  H  H289  1  0.54910000  0.47760000  0.97800000  1
  H  H290  1  0.68050000  0.37770000  0.82260000  1
  H  H291  1  0.64570000  0.25750000  0.84500000  1
  H  H292  1  0.50890000  0.52940000  0.87490000  1
  H  H293  1  0.55580000  0.65980000  0.86960000  1
  H  H294  1  0.71890000  0.72850000  0.88040000  1
  H  H295  1  0.78990000  0.53620000  0.90230000  1
  H  H296  1  0.83870000  0.74090000  0.82960000  1
  H  H297  1  0.00440000  0.81520000  0.84830000  1
  H  H298  1  0.11860000  0.72900000  0.00920000  1
  H  H299  1  0.95130000  0.64520000  0.98140000  1
  H  H300  1  0.26050000  0.22780000  0.86120000  1
  H  H301  1  0.36840000  0.25530000  0.69690000  1
  H  H302  1  0.35150000  0.38300000  0.73480000  1
  H  H303  1  0.37000000  0.14590000  0.72080000  1
  H  H304  1  0.26820000  0.10170000  0.72990000  1
  H  H305  1  0.37710000  0.15810000  0.81450000  1
  H  H306  1  0.20670000  0.33280000  0.86960000  1
  H  H307  1  0.25810000  0.45750000  0.76920000  1
  H  H308  1  0.26600000  0.47810000  0.86500000  1
  H  H309  1  0.15990000  0.40850000  0.77980000  1
  H  H310  1  0.51380000  0.99920000  0.35620000  1
  H  H311  1  0.57110000  0.02200000  0.49960000  1
  H  H312  1  0.85790000  0.17740000  0.55510000  1
  H  H313  1  0.80070000  0.15500000  0.41250000  1
  H  H314  1  0.63400000  0.12510000  0.65450000  1
  H  H315  1  0.68620000  0.13040000  0.79020000  1
  H  H316  1  0.83850000  0.11960000  0.84810000  1
  H  H317  1  0.88760000  0.09770000  0.63390000  1
  H  H318  1  0.00910000  0.17040000  0.91130000  1
  H  H319  1  0.15610000  0.15170000  0.96690000  1
  H  H320  1  0.10940000  0.99080000  0.71980000  1
  H  H321  1  0.96990000  0.01860000  0.66380000  1
  H  H322  1  0.15760000  0.64380000  0.64300000  1
  H  H323  1  0.07150000  0.50040000  0.52240000  1
  H  H324  1  0.30280000  0.44490000  0.62230000  1
  H  H325  1  0.38820000  0.58750000  0.74250000  1
  H  H326  1  0.97950000  0.34550000  0.47060000  1
  H  H327  1  0.89600000  0.20980000  0.34020000  1
  H  H328  1  0.99040000  0.15190000  0.27150000  1
  H  H329  1  0.25370000  0.36610000  0.46380000  1
  H  H330  1  0.09780000  0.08870000  0.25910000  1
  H  H331  1  0.18920000  0.03310000  0.18480000  1
  H  H332  1  0.38960000  0.28020000  0.27100000  1
  H  H333  1  0.30610000  0.33620000  0.35480000  1
  H  H334  1  0.39930000  0.13880000  0.36660000  1
  H  H335  1  0.67150000  0.30310000  0.55840000  1
  H  H336  1  0.61670000  0.26520000  0.64820000  1
  H  H337  1  0.64920000  0.27920000  0.42510000  1
  H  H338  1  0.53830000  0.27010000  0.37180000  1
  H  H339  1  0.56260000  0.18550000  0.34360000  1
  H  H340  1  0.33710000  0.13040000  0.46320000  1
  H  H341  1  0.48890000  0.23080000  0.68830000  1
  H  H342  1  0.40100000  0.13500000  0.61310000  1
  H  H343  1  0.38010000  0.22020000  0.62870000  1
  H  H344  1  0.03270000  0.63340000  0.77220000  1
  H  H345  1  0.11310000  0.44160000  0.74470000  1
  H  H346  1  0.96850000  0.35180000  0.61700000  1
  H  H347  1  0.22410000  0.57490000  0.85410000  1
  H  H348  1  0.16650000  0.62820000  0.89830000  1
  H  H349  1  0.21900000  0.65640000  0.84190000  1
  H  H350  1  0.87390000  0.53680000  0.66720000  1
  H  H351  1  0.80060000  0.31170000  0.54250000  1
  H  H352  1  0.78790000  0.38690000  0.52190000  1
  H  H353  1  0.75140000  0.37130000  0.59150000  1
  O  O354  1  0.49291000  0.78191000  0.01113000  1
  O  O355  1  0.41638000  0.83883067  0.09656000  1
  O  O356  1  0.80499000  0.15745967  0.11544000  1
  O  O357  1  0.74600000  0.13215967  0.97496000  1
  O  O358  1  0.64208889  0.00005556  0.00001111  1
  O  O359  1  0.39575000  0.87145067  0.95930000  1
  O  O360  1  0.84982222  0.99995556  0.00001111  1
  O  O361  1  0.65690000  0.89690000  0.21540000  1
  O  O362  1  0.48178000  0.98887000  0.77078000  1
  O  O363  1  0.31982000  0.90344067  0.74227000  1
  O  O364  1  0.68955000  0.88455967  0.04202000  1
  O  O365  1  0.77104000  0.02503967  0.15720000  1
  O  O366  1  0.43645000  0.04070067  0.91215000  1
  O  O367  1  0.71100000  0.22922000  0.21809000  1
  O  O368  1  0.57755000  0.25773067  0.16117000  1
  O  O369  1  0.64753000  0.95797967  0.84254000  1
  O  O370  1  0.61384000  0.84279967  0.86784000  1
  O  O371  1  0.52430000  0.08785067  0.12855000  1
  O  O372  1  0.58362000  0.16116967  0.90344000  1
  O  O373  1  0.68018000  0.09655967  0.25773000  1
  O  O374  1  0.42245000  0.74226967  0.83883000  1
  O  O375  1  0.60425000  0.12854967  0.04070000  1
  O  O376  1  0.56355000  0.95929967  0.08785000  1
  O  O377  1  0.47570000  0.91214967  0.87145000  1
  O  O378  1  0.44150000  0.78460000  0.68150000  1
  O  O379  1  0.76000000  0.31850000  0.10310000  1
  O  O380  1  0.50709000  0.21809000  0.98887000  1
  O  O381  1  0.19501000  0.84254067  0.88456000  1
  O  O382  1  0.25400000  0.86784067  0.02504000  1
  O  O383  1  0.35792222  0.99995556  0.00001111  1
  O  O384  1  0.15018889  0.00005556  0.00001111  1
  O  O385  1  0.34310000  0.10310000  0.78460000  1
  O  O386  1  0.51822000  0.01113000  0.22922000  1
  O  O387  1  0.31045000  0.11544067  0.95798000  1
  O  O388  1  0.22896000  0.97496067  0.84280000  1
  O  O389  1  0.28900000  0.77078000  0.78191000  1
  O  O390  1  0.35247000  0.04202067  0.15746000  1
  O  O391  1  0.38616000  0.15720067  0.13216000  1
  O  O392  1  0.55850000  0.21540000  0.31850000  1
  O  O393  1  0.24000000  0.68150000  0.89690000  1
  Zr  Zr394  1  0.53851000  0.86956067  0.95849000  1
  Zr  Zr395  1  0.58002000  0.04151067  0.91107000  1
  Zr  Zr396  1  0.66895000  0.08893067  0.13044000  1
  Zr  Zr397  1  0.46149000  0.13043967  0.04151000  1
  Zr  Zr398  1  0.41998000  0.95848967  0.08893000  1
  Zr  Zr399  1  0.33105000  0.91106967  0.86956000  1
