# generated using pymatgen
data_Zr3H75C93O16
_symmetry_space_group_name_H-M   'P 1'
_cell_length_a   14.96280000
_cell_length_b   18.22608564
_cell_length_c   18.22608564
_cell_angle_alpha   112.80972738
_cell_angle_beta   105.88168262
_cell_angle_gamma   105.88168262
_symmetry_Int_Tables_number   1
_chemical_formula_structural   Zr3H75C93O16
_chemical_formula_sum   'Zr6 H150 C186 O32'
_cell_volume   3982.22606293
_cell_formula_units_Z   2
loop_
 _symmetry_equiv_pos_site_id
 _symmetry_equiv_pos_as_xyz
  1  'x, y, z'
loop_
 _atom_site_type_symbol
 _atom_site_label
 _atom_site_symmetry_multiplicity
 _atom_site_fract_x
 _atom_site_fract_y
 _atom_site_fract_z
 _atom_site_occupancy
  C  C0  1  0.55543000  0.22009000  0.94190000  1
  C  C1  1  0.57660000  0.29580000  0.92520000  1
  C  C2  1  0.54910000  0.36140000  0.96400000  1
  C  C3  1  0.57040000  0.43320000  0.95130000  1
  C  C4  1  0.61960000  0.43950000  0.89820000  1
  C  C5  1  0.64760000  0.37300000  0.85880000  1
  C  C6  1  0.62650000  0.30190000  0.87320000  1
  C  C7  1  0.64650000  0.51880000  0.88760000  1
  C  C8  1  0.57770000  0.55620000  0.87690000  1
  C  C9  1  0.60580000  0.63210000  0.87090000  1
  C  C10  1  0.70220000  0.67170000  0.87630000  1
  C  C11  1  0.77310000  0.63520000  0.88730000  1
  C  C12  1  0.74330000  0.55910000  0.89290000  1
  C  C13  1  0.87840000  0.68030000  0.89800000  1
  C  C14  1  0.89570000  0.72450000  0.85350000  1
  C  C15  1  0.99440000  0.77150000  0.86650000  1
  C  C16  1  0.07750000  0.77605000  0.92615000  1
  C  C17  1  0.06188000  0.72991000  0.96953000  1
  C  C18  1  0.96274000  0.68098000  0.95414000  1
  C  C19  1  0.18386000  0.83212000  0.94496000  1
  C  C20  1  0.31220000  0.22540000  0.78320000  1
  C  C21  1  0.31200000  0.26090000  0.74410000  1
  C  C22  1  0.28900000  0.31800000  0.76200000  1
  C  C23  1  0.24400000  0.32400000  0.80400000  1
  C  C24  1  0.24900000  0.29300000  0.84700000  1
  C  C25  1  0.28480000  0.24520000  0.83720000  1
  C  C26  1  0.33570000  0.14670000  0.75810000  1
  C  C27  1  0.03860000  0.63260000  0.16020000  1
  C  C28  1  0.01930000  0.56200000  0.07840000  1
  C  C29  1  0.92870000  0.49240000  0.03040000  1
  C  C30  1  0.91040000  0.43090000  0.95210000  1
  C  C31  1  0.61353000  0.05810000  0.27819000  1
  C  C32  1  0.65140000  0.07480000  0.37060000  1
  C  C33  1  0.58510000  0.03600000  0.39740000  1
  C  C34  1  0.61910000  0.04870000  0.48190000  1
  C  C35  1  0.72140000  0.10180000  0.54130000  1
  C  C36  1  0.78880000  0.14120000  0.51420000  1
  C  C37  1  0.75330000  0.12680000  0.42870000  1
  C  C38  1  0.75890000  0.11240000  0.63120000  1
  C  C39  1  0.70080000  0.12310000  0.67930000  1
  C  C40  1  0.73490000  0.12910000  0.76120000  1
  C  C41  1  0.82590000  0.12370000  0.79540000  1
  C  C42  1  0.88580000  0.11270000  0.74790000  1
  C  C43  1  0.85040000  0.10710000  0.66620000  1
  C  C44  1  0.98040000  0.10200000  0.78230000  1
  C  C45  1  0.04220000  0.14650000  0.87100000  1
  C  C46  1  0.12790000  0.13350000  0.90500000  1
  C  C47  1  0.15135000  0.07385000  0.84990000  1
  C  C48  1  0.09235000  0.03047000  0.76038000  1
  C  C49  1  0.00860000  0.04586000  0.72684000  1
  C  C50  1  0.23890000  0.05504000  0.88716000  1
  C  C51  1  0.52900000  0.21680000  0.44220000  1
  C  C52  1  0.56790000  0.25590000  0.51680000  1
  C  C53  1  0.52700000  0.23800000  0.55600000  1
  C  C54  1  0.44000000  0.19600000  0.52000000  1
  C  C55  1  0.40200000  0.15300000  0.44600000  1
  C  C56  1  0.44760000  0.16280000  0.40800000  1
  C  C57  1  0.57760000  0.24190000  0.38860000  1
  C  C58  1  0.87840000  0.83980000  0.47240000  1
  C  C59  1  0.94090000  0.92160000  0.48360000  1
  C  C60  1  0.89830000  0.96960000  0.46200000  1
  C  C61  1  0.95830000  0.04790000  0.47880000  1
  C  C62  1  0.33534000  0.72181000  0.77991000  1
  C  C63  1  0.28080000  0.62940000  0.70420000  1
  C  C64  1  0.18770000  0.60260000  0.63860000  1
  C  C65  1  0.13720000  0.51810000  0.56680000  1
  C  C66  1  0.18010000  0.45870000  0.56050000  1
  C  C67  1  0.27460000  0.48580000  0.62700000  1
  C  C68  1  0.32460000  0.57130000  0.69810000  1
  C  C69  1  0.12770000  0.36880000  0.48120000  1
  C  C70  1  0.02150000  0.32070000  0.44380000  1
  C  C71  1  0.97370000  0.23880000  0.36790000  1
  C  C72  1  0.03050000  0.20460000  0.32830000  1
  C  C73  1  0.13790000  0.25210000  0.36480000  1
  C  C74  1  0.18420000  0.33380000  0.44090000  1
  C  C75  1  0.19810000  0.21770000  0.31970000  1
  C  C76  1  0.17120000  0.12900000  0.27550000  1
  C  C77  1  0.22290000  0.09500000  0.22850000  1
  C  C78  1  0.30145000  0.15010000  0.22395000  1
  C  C79  1  0.33197000  0.23962000  0.27009000  1
  C  C80  1  0.28176000  0.27316000  0.31902000  1
  C  C81  1  0.35174000  0.11284000  0.16788000  1
  C  C82  1  0.08680000  0.55780000  0.77460000  1
  C  C83  1  0.05110000  0.48320000  0.73910000  1
  C  C84  1  0.97100000  0.44400000  0.68200000  1
  C  C85  1  0.92000000  0.48000000  0.67600000  1
  C  C86  1  0.95600000  0.55400000  0.70700000  1
  C  C87  1  0.03960000  0.59200000  0.75480000  1
  C  C88  1  0.18900000  0.61140000  0.85330000  1
  C  C89  1  0.40600000  0.52760000  0.36740000  1
  C  C90  1  0.45730000  0.51640000  0.43800000  1
  C  C91  1  0.43630000  0.53800000  0.50760000  1
  C  C92  1  0.47950000  0.52120000  0.56910000  1
  C  C93  1  0.44457000  0.77991000  0.05810000  1
  C  C94  1  0.42340000  0.70420000  0.07480000  1
  C  C95  1  0.45090000  0.63860000  0.03600000  1
  C  C96  1  0.42960000  0.56680000  0.04870000  1
  C  C97  1  0.38040000  0.56050000  0.10180000  1
  C  C98  1  0.35240000  0.62700000  0.14120000  1
  C  C99  1  0.37350000  0.69810000  0.12680000  1
  C  C100  1  0.35350000  0.48120000  0.11240000  1
  C  C101  1  0.42230000  0.44380000  0.12310000  1
  C  C102  1  0.39420000  0.36790000  0.12910000  1
  C  C103  1  0.29780000  0.32830000  0.12370000  1
  C  C104  1  0.22690000  0.36480000  0.11270000  1
  C  C105  1  0.25670000  0.44090000  0.10710000  1
  C  C106  1  0.12160000  0.31970000  0.10200000  1
  C  C107  1  0.10430000  0.27550000  0.14650000  1
  C  C108  1  0.00560000  0.22850000  0.13350000  1
  C  C109  1  0.92250000  0.22395000  0.07385000  1
  C  C110  1  0.93812000  0.27009000  0.03047000  1
  C  C111  1  0.03726000  0.31902000  0.04586000  1
  C  C112  1  0.81614000  0.16788000  0.05504000  1
  C  C113  1  0.68780000  0.77460000  0.21680000  1
  C  C114  1  0.68800000  0.73910000  0.25590000  1
  C  C115  1  0.71100000  0.68200000  0.23800000  1
  C  C116  1  0.75600000  0.67600000  0.19600000  1
  C  C117  1  0.75100000  0.70700000  0.15300000  1
  C  C118  1  0.71520000  0.75480000  0.16280000  1
  C  C119  1  0.66430000  0.85330000  0.24190000  1
  C  C120  1  0.96140000  0.36740000  0.83980000  1
  C  C121  1  0.98070000  0.43800000  0.92160000  1
  C  C122  1  0.07130000  0.50760000  0.96960000  1
  C  C123  1  0.08960000  0.56910000  0.04790000  1
  C  C124  1  0.38647000  0.94190000  0.72181000  1
  C  C125  1  0.34860000  0.92520000  0.62940000  1
  C  C126  1  0.41490000  0.96400000  0.60260000  1
  C  C127  1  0.38090000  0.95130000  0.51810000  1
  C  C128  1  0.27860000  0.89820000  0.45870000  1
  C  C129  1  0.21120000  0.85880000  0.48580000  1
  C  C130  1  0.24670000  0.87320000  0.57130000  1
  C  C131  1  0.24110000  0.88760000  0.36880000  1
  C  C132  1  0.29920000  0.87690000  0.32070000  1
  C  C133  1  0.26510000  0.87090000  0.23880000  1
  C  C134  1  0.17410000  0.87630000  0.20460000  1
  C  C135  1  0.11420000  0.88730000  0.25210000  1
  C  C136  1  0.14960000  0.89290000  0.33380000  1
  C  C137  1  0.01960000  0.89800000  0.21770000  1
  C  C138  1  0.95780000  0.85350000  0.12900000  1
  C  C139  1  0.87210000  0.86650000  0.09500000  1
  C  C140  1  0.84865000  0.92615000  0.15010000  1
  C  C141  1  0.90765000  0.96953000  0.23962000  1
  C  C142  1  0.99140000  0.95414000  0.27316000  1
  C  C143  1  0.76110000  0.94496000  0.11284000  1
  C  C144  1  0.47100000  0.78320000  0.55780000  1
  C  C145  1  0.43210000  0.74410000  0.48320000  1
  C  C146  1  0.47300000  0.76200000  0.44400000  1
  C  C147  1  0.56000000  0.80400000  0.48000000  1
  C  C148  1  0.59800000  0.84700000  0.55400000  1
  C  C149  1  0.55240000  0.83720000  0.59200000  1
  C  C150  1  0.42240000  0.75810000  0.61140000  1
  C  C151  1  0.12160000  0.16020000  0.52760000  1
  C  C152  1  0.05910000  0.07840000  0.51640000  1
  C  C153  1  0.10170000  0.03040000  0.53800000  1
  C  C154  1  0.04170000  0.95210000  0.52120000  1
  C  C155  1  0.66466000  0.27819000  0.22009000  1
  C  C156  1  0.71920000  0.37060000  0.29580000  1
  C  C157  1  0.81230000  0.39740000  0.36140000  1
  C  C158  1  0.86280000  0.48190000  0.43320000  1
  C  C159  1  0.81990000  0.54130000  0.43950000  1
  C  C160  1  0.72540000  0.51420000  0.37300000  1
  C  C161  1  0.67540000  0.42870000  0.30190000  1
  C  C162  1  0.87230000  0.63120000  0.51880000  1
  C  C163  1  0.97850000  0.67930000  0.55620000  1
  C  C164  1  0.02630000  0.76120000  0.63210000  1
  C  C165  1  0.96950000  0.79540000  0.67170000  1
  C  C166  1  0.86210000  0.74790000  0.63520000  1
  C  C167  1  0.81580000  0.66620000  0.55910000  1
  C  C168  1  0.80190000  0.78230000  0.68030000  1
  C  C169  1  0.82880000  0.87100000  0.72450000  1
  C  C170  1  0.77710000  0.90500000  0.77150000  1
  C  C171  1  0.69855000  0.84990000  0.77605000  1
  C  C172  1  0.66803000  0.76038000  0.72991000  1
  C  C173  1  0.71824000  0.72684000  0.68098000  1
  C  C174  1  0.64826000  0.88716000  0.83212000  1
  C  C175  1  0.91320000  0.44220000  0.22540000  1
  C  C176  1  0.94890000  0.51680000  0.26090000  1
  C  C177  1  0.02900000  0.55600000  0.31800000  1
  C  C178  1  0.08000000  0.52000000  0.32400000  1
  C  C179  1  0.04400000  0.44600000  0.29300000  1
  C  C180  1  0.96040000  0.40800000  0.24520000  1
  C  C181  1  0.81100000  0.38860000  0.14670000  1
  C  C182  1  0.59400000  0.47240000  0.63260000  1
  C  C183  1  0.54270000  0.48360000  0.56200000  1
  C  C184  1  0.56370000  0.46200000  0.49240000  1
  C  C185  1  0.52050000  0.47880000  0.43090000  1
  H  H186  1  0.51490000  0.35760000  0.00020000  1
  H  H187  1  0.55120000  0.47830000  0.97910000  1
  H  H188  1  0.68120000  0.37610000  0.82210000  1
  H  H189  1  0.64680000  0.25710000  0.84690000  1
  H  H190  1  0.51160000  0.52990000  0.87380000  1
  H  H191  1  0.55840000  0.65710000  0.86300000  1
  H  H192  1  0.72060000  0.72370000  0.87230000  1
  H  H193  1  0.79040000  0.53370000  0.90060000  1
  H  H194  1  0.83880000  0.72320000  0.81280000  1
  H  H195  1  0.00420000  0.80050000  0.83390000  1
  H  H196  1  0.11900000  0.73150000  0.01000000  1
  H  H197  1  0.95270000  0.64740000  0.98250000  1
  H  H198  1  0.32900000  0.24220000  0.69560000  1
  H  H199  1  0.30730000  0.35870000  0.74320000  1
  H  H200  1  0.20320000  0.35640000  0.80310000  1
  H  H201  1  0.22320000  0.30660000  0.88980000  1
  H  H202  1  0.29250000  0.22110000  0.87510000  1
  H  H203  1  0.33310000  0.12550000  0.79970000  1
  H  H204  1  0.28480000  0.09980000  0.69850000  1
  H  H205  1  0.40460000  0.16310000  0.75970000  1
  H  H206  1  0.87770000  0.48700000  0.05200000  1
  H  H207  1  0.84580000  0.38100000  0.91740000  1
  H  H208  1  0.97980000  0.61750000  0.17380000  1
  H  H209  1  0.10020000  0.64280000  0.20700000  1
  H  H210  1  0.05020000  0.68620000  0.15610000  1
  H  H211  1  0.51470000  0.99980000  0.35740000  1
  H  H212  1  0.57210000  0.02090000  0.49920000  1
  H  H213  1  0.85910000  0.17790000  0.55400000  1
  H  H214  1  0.79990000  0.15310000  0.41020000  1
  H  H215  1  0.63780000  0.12620000  0.65610000  1
  H  H216  1  0.69540000  0.13700000  0.79410000  1
  H  H217  1  0.84830000  0.12770000  0.85140000  1
  H  H218  1  0.88980000  0.09940000  0.63310000  1
  H  H219  1  0.02600000  0.18720000  0.91040000  1
  H  H220  1  0.17030000  0.16610000  0.96660000  1
  H  H221  1  0.10900000  0.99000000  0.72150000  1
  H  H222  1  0.97020000  0.01750000  0.66490000  1
  H  H223  1  0.63340000  0.30440000  0.54660000  1
  H  H224  1  0.56410000  0.25680000  0.61550000  1
  H  H225  1  0.40010000  0.19690000  0.55330000  1
  H  H226  1  0.33340000  0.11020000  0.41680000  1
  H  H227  1  0.41740000  0.12490000  0.34600000  1
  H  H228  1  0.53340000  0.20030000  0.32580000  1
  H  H229  1  0.58630000  0.30150000  0.40130000  1
  H  H230  1  0.64490000  0.24030000  0.40340000  1
  H  H231  1  0.82570000  0.94800000  0.43500000  1
  H  H232  1  0.92840000  0.08260000  0.46360000  1
  H  H233  1  0.80600000  0.82620000  0.44370000  1
  H  H234  1  0.89320000  0.79300000  0.43580000  1
  H  H235  1  0.89410000  0.84390000  0.53010000  1
  H  H236  1  0.15730000  0.64260000  0.64240000  1
  H  H237  1  0.07290000  0.50080000  0.52170000  1
  H  H238  1  0.30510000  0.44600000  0.62390000  1
  H  H239  1  0.38970000  0.58980000  0.74290000  1
  H  H240  1  0.98170000  0.34390000  0.47010000  1
  H  H241  1  0.90130000  0.20590000  0.34290000  1
  H  H242  1  0.99690000  0.14860000  0.27630000  1
  H  H243  1  0.25670000  0.36690000  0.46630000  1
  H  H244  1  0.11560000  0.08960000  0.27680000  1
  H  H245  1  0.20370000  0.03340000  0.19950000  1
  H  H246  1  0.38750000  0.27850000  0.26850000  1
  H  H247  1  0.30530000  0.33510000  0.35260000  1
  H  H248  1  0.08680000  0.45340000  0.75780000  1
  H  H249  1  0.94860000  0.38450000  0.64130000  1
  H  H250  1  0.84680000  0.44670000  0.64360000  1
  H  H251  1  0.91660000  0.58320000  0.69340000  1
  H  H252  1  0.07140000  0.65400000  0.77890000  1
  H  H253  1  0.20760000  0.67420000  0.87450000  1
  H  H254  1  0.18500000  0.59870000  0.90020000  1
  H  H255  1  0.24150000  0.59660000  0.83690000  1
  H  H256  1  0.39070000  0.56500000  0.51300000  1
  H  H257  1  0.46480000  0.53640000  0.61900000  1
  H  H258  1  0.36230000  0.55630000  0.38250000  1
  H  H259  1  0.45740000  0.56420000  0.35720000  1
  H  H260  1  0.36400000  0.46990000  0.31380000  1
  H  H261  1  0.48510000  0.64240000  0.99980000  1
  H  H262  1  0.44880000  0.52170000  0.02090000  1
  H  H263  1  0.31880000  0.62390000  0.17790000  1
  H  H264  1  0.35320000  0.74290000  0.15310000  1
  H  H265  1  0.48840000  0.47010000  0.12620000  1
  H  H266  1  0.44160000  0.34290000  0.13700000  1
  H  H267  1  0.27940000  0.27630000  0.12770000  1
  H  H268  1  0.20960000  0.46630000  0.09940000  1
  H  H269  1  0.16120000  0.27680000  0.18720000  1
  H  H270  1  0.99580000  0.19950000  0.16610000  1
  H  H271  1  0.88100000  0.26850000  0.99000000  1
  H  H272  1  0.04730000  0.35260000  0.01750000  1
  H  H273  1  0.67100000  0.75780000  0.30440000  1
  H  H274  1  0.69270000  0.64130000  0.25680000  1
  H  H275  1  0.79680000  0.64360000  0.19690000  1
  H  H276  1  0.77680000  0.69340000  0.11020000  1
  H  H277  1  0.70750000  0.77890000  0.12490000  1
  H  H278  1  0.66690000  0.87450000  0.20030000  1
  H  H279  1  0.71520000  0.90020000  0.30150000  1
  H  H280  1  0.59540000  0.83690000  0.24030000  1
  H  H281  1  0.12230000  0.51300000  0.94800000  1
  H  H282  1  0.15420000  0.61900000  0.08260000  1
  H  H283  1  0.02020000  0.38250000  0.82620000  1
  H  H284  1  0.89980000  0.35720000  0.79300000  1
  H  H285  1  0.94980000  0.31380000  0.84390000  1
  H  H286  1  0.48530000  0.00020000  0.64260000  1
  H  H287  1  0.42790000  0.97910000  0.50080000  1
  H  H288  1  0.14090000  0.82210000  0.44600000  1
  H  H289  1  0.20010000  0.84690000  0.58980000  1
  H  H290  1  0.36220000  0.87380000  0.34390000  1
  H  H291  1  0.30460000  0.86300000  0.20590000  1
  H  H292  1  0.15170000  0.87230000  0.14860000  1
  H  H293  1  0.11020000  0.90060000  0.36690000  1
  H  H294  1  0.97400000  0.81280000  0.08960000  1
  H  H295  1  0.82970000  0.83390000  0.03340000  1
  H  H296  1  0.89100000  0.01000000  0.27850000  1
  H  H297  1  0.02980000  0.98250000  0.33510000  1
  H  H298  1  0.36660000  0.69560000  0.45340000  1
  H  H299  1  0.43590000  0.74320000  0.38450000  1
  H  H300  1  0.59990000  0.80310000  0.44670000  1
  H  H301  1  0.66660000  0.88980000  0.58320000  1
  H  H302  1  0.58260000  0.87510000  0.65400000  1
  H  H303  1  0.46660000  0.79970000  0.67420000  1
  H  H304  1  0.41370000  0.69850000  0.59870000  1
  H  H305  1  0.35510000  0.75970000  0.59660000  1
  H  H306  1  0.17430000  0.05200000  0.56500000  1
  H  H307  1  0.07160000  0.91740000  0.53640000  1
  H  H308  1  0.19400000  0.17380000  0.55630000  1
  H  H309  1  0.10680000  0.20700000  0.56420000  1
  H  H310  1  0.10590000  0.15610000  0.46990000  1
  H  H311  1  0.84270000  0.35740000  0.35760000  1
  H  H312  1  0.92710000  0.49920000  0.47830000  1
  H  H313  1  0.69490000  0.55400000  0.37610000  1
  H  H314  1  0.61030000  0.41020000  0.25710000  1
  H  H315  1  0.01830000  0.65610000  0.52990000  1
  H  H316  1  0.09870000  0.79410000  0.65710000  1
  H  H317  1  0.00310000  0.85140000  0.72370000  1
  H  H318  1  0.74330000  0.63310000  0.53370000  1
  H  H319  1  0.88440000  0.91040000  0.72320000  1
  H  H320  1  0.79630000  0.96660000  0.80050000  1
  H  H321  1  0.61250000  0.72150000  0.73150000  1
  H  H322  1  0.69470000  0.66490000  0.64740000  1
  H  H323  1  0.91320000  0.54660000  0.24220000  1
  H  H324  1  0.05140000  0.61550000  0.35870000  1
  H  H325  1  0.15320000  0.55330000  0.35640000  1
  H  H326  1  0.08340000  0.41680000  0.30660000  1
  H  H327  1  0.92860000  0.34600000  0.22110000  1
  H  H328  1  0.79240000  0.32580000  0.12550000  1
  H  H329  1  0.81500000  0.40130000  0.09980000  1
  H  H330  1  0.75850000  0.40340000  0.16310000  1
  H  H331  1  0.60930000  0.43500000  0.48700000  1
  H  H332  1  0.53520000  0.46360000  0.38100000  1
  H  H333  1  0.63770000  0.44370000  0.61750000  1
  H  H334  1  0.54260000  0.43580000  0.64280000  1
  H  H335  1  0.63600000  0.53010000  0.68620000  1
  O  O336  1  0.50919000  0.21986000  0.99151000  1
  O  O337  1  0.58509000  0.16281000  0.90585000  1
  O  O338  1  0.25262000  0.86605000  0.02221000  1
  O  O339  1  0.19540000  0.84213000  0.88257000  1
  O  O340  1  0.52460000  0.08669000  0.12831000  1
  O  O341  1  0.35823222  0.99999667  0.00000000  1
  O  O342  1  0.51768000  0.00849000  0.22835000  1
  O  O343  1  0.67924000  0.09415000  0.25696000  1
  O  O344  1  0.23041000  0.97779000  0.84384000  1
  O  O345  1  0.31283000  0.11743000  0.95956000  1
  O  O346  1  0.39629000  0.87169000  0.95838000  1
  O  O347  1  0.28933000  0.77165000  0.78014000  1
  O  O348  1  0.42228000  0.74304000  0.83719000  1
  O  O349  1  0.38657000  0.15616000  0.13395000  1
  O  O350  1  0.35327000  0.04044000  0.15787000  1
  O  O351  1  0.43791000  0.04162000  0.91331000  1
  O  O352  1  0.49081000  0.78014000  0.00849000  1
  O  O353  1  0.41491000  0.83719000  0.09415000  1
  O  O354  1  0.74738000  0.13395000  0.97779000  1
  O  O355  1  0.80460000  0.15787000  0.11743000  1
  O  O356  1  0.47540000  0.91331000  0.87169000  1
  O  O357  1  0.64176778  0.00000333  0.00000000  1
  O  O358  1  0.48232000  0.99151000  0.77165000  1
  O  O359  1  0.32076000  0.90585000  0.74304000  1
  O  O360  1  0.76959000  0.02221000  0.15616000  1
  O  O361  1  0.68717000  0.88257000  0.04044000  1
  O  O362  1  0.60371000  0.12831000  0.04162000  1
  O  O363  1  0.71067000  0.22835000  0.21986000  1
  O  O364  1  0.57772000  0.25696000  0.16281000  1
  O  O365  1  0.61343000  0.84384000  0.86605000  1
  O  O366  1  0.64673000  0.95956000  0.84213000  1
  O  O367  1  0.56209000  0.95838000  0.08669000  1
  Zr  Zr368  1  0.46214000  0.13054000  0.04279000  1
  Zr  Zr369  1  0.41935000  0.95721000  0.08775000  1
  Zr  Zr370  1  0.33160000  0.91225000  0.86946000  1
  Zr  Zr371  1  0.53786000  0.86946000  0.95721000  1
  Zr  Zr372  1  0.58065000  0.04279000  0.91225000  1
  Zr  Zr373  1  0.66840000  0.08775000  0.13054000  1
