# generated using pymatgen
data_Zr12Cu3H72C144(N3O13)4
_symmetry_space_group_name_H-M   'P 1'
_cell_length_a   33.30040883
_cell_length_b   33.30040883
_cell_length_c   33.30040883
_cell_angle_alpha   109.47122063
_cell_angle_beta   109.47122063
_cell_angle_gamma   109.47122063
_symmetry_Int_Tables_number   1
_chemical_formula_structural   Zr12Cu3H72C144(N3O13)4
_chemical_formula_sum   'Zr24 Cu6 H144 C288 N24 O104'
_cell_volume   28426.72350070
_cell_formula_units_Z   2
loop_
 _symmetry_equiv_pos_site_id
 _symmetry_equiv_pos_as_xyz
  1  'x, y, z'
loop_
 _atom_site_type_symbol
 _atom_site_label
 _atom_site_symmetry_multiplicity
 _atom_site_fract_x
 _atom_site_fract_y
 _atom_site_fract_z
 _atom_site_occupancy
  C  C0  1  0.34160000  0.85646000  0.75706000  1
  C  C1  1  0.31610000  0.83136000  0.70686000  1
  C  C2  1  0.32188000  0.77708000  0.60156000  1
  C  C3  1  0.35613000  0.76459000  0.62652000  1
  C  C4  1  0.41813000  0.91813000  0.83626000  1
  C  C5  1  0.39077000  0.89077000  0.78154000  1
  C  C6  1  0.34028000  0.84028000  0.68056000  1
  C  C7  1  0.31310000  0.81310000  0.62620000  1
  C  C8  1  0.09940000  0.51486000  0.85646000  1
  C  C9  1  0.12450000  0.51526000  0.83136000  1
  C  C10  1  0.17552000  0.45520000  0.77708000  1
  C  C11  1  0.13807000  0.40846000  0.76459000  1
  C  C12  1  0.08187000  0.50000000  0.91813000  1
  C  C13  1  0.10923000  0.50000000  0.89077000  1
  C  C14  1  0.15972000  0.50000000  0.84028000  1
  C  C15  1  0.18690000  0.50000000  0.81310000  1
  C  C16  1  0.65840000  0.41546000  0.51486000  1
  C  C17  1  0.68390000  0.39076000  0.51526000  1
  C  C18  1  0.67812000  0.27968000  0.45520000  1
  C  C19  1  0.64387000  0.27039000  0.40846000  1
  C  C20  1  0.58187000  0.41813000  0.50000000  1
  C  C21  1  0.60923000  0.39077000  0.50000000  1
  C  C22  1  0.65972000  0.34028000  0.50000000  1
  C  C23  1  0.68690000  0.31310000  0.50000000  1
  C  C24  1  0.90060000  0.75706000  0.41546000  1
  C  C25  1  0.87550000  0.70686000  0.39076000  1
  C  C26  1  0.82448000  0.60156000  0.27968000  1
  C  C27  1  0.86193000  0.62652000  0.27039000  1
  C  C28  1  0.91813000  0.83626000  0.41813000  1
  C  C29  1  0.89077000  0.78154000  0.39077000  1
  C  C30  1  0.84028000  0.68056000  0.34028000  1
  C  C31  1  0.81310000  0.62620000  0.31310000  1
  C  C32  1  0.09940000  0.58454000  0.24294000  1
  C  C33  1  0.12450000  0.60924000  0.29314000  1
  C  C34  1  0.17552000  0.72032000  0.39844000  1
  C  C35  1  0.13807000  0.72961000  0.37348000  1
  C  C36  1  0.08187000  0.58187000  0.16374000  1
  C  C37  1  0.10923000  0.60923000  0.21846000  1
  C  C38  1  0.15972000  0.65972000  0.31944000  1
  C  C39  1  0.18690000  0.68690000  0.37380000  1
  C  C40  1  0.34160000  0.48514000  0.58454000  1
  C  C41  1  0.31610000  0.48474000  0.60924000  1
  C  C42  1  0.32188000  0.54480000  0.72032000  1
  C  C43  1  0.35613000  0.59154000  0.72961000  1
  C  C44  1  0.41813000  0.50000000  0.58187000  1
  C  C45  1  0.39077000  0.50000000  0.60923000  1
  C  C46  1  0.34028000  0.50000000  0.65972000  1
  C  C47  1  0.31310000  0.50000000  0.68690000  1
  C  C48  1  0.90060000  0.14354000  0.48514000  1
  C  C49  1  0.87550000  0.16864000  0.48474000  1
  C  C50  1  0.82448000  0.22292000  0.54480000  1
  C  C51  1  0.86193000  0.23541000  0.59154000  1
  C  C52  1  0.91813000  0.08187000  0.50000000  1
  C  C53  1  0.89077000  0.10923000  0.50000000  1
  C  C54  1  0.84028000  0.15972000  0.50000000  1
  C  C55  1  0.81310000  0.18690000  0.50000000  1
  C  C56  1  0.65840000  0.24294000  0.14354000  1
  C  C57  1  0.68390000  0.29314000  0.16864000  1
  C  C58  1  0.67812000  0.39844000  0.22292000  1
  C  C59  1  0.64387000  0.37348000  0.23541000  1
  C  C60  1  0.58187000  0.16374000  0.08187000  1
  C  C61  1  0.60923000  0.21846000  0.10923000  1
  C  C62  1  0.65972000  0.31944000  0.15972000  1
  C  C63  1  0.68690000  0.37380000  0.18690000  1
  C  C64  1  0.58454000  0.24294000  0.09940000  1
  C  C65  1  0.60924000  0.29314000  0.12450000  1
  C  C66  1  0.72032000  0.39844000  0.17552000  1
  C  C67  1  0.72961000  0.37348000  0.13807000  1
  C  C68  1  0.14354000  0.65840000  0.24294000  1
  C  C69  1  0.16864000  0.68390000  0.29314000  1
  C  C70  1  0.22292000  0.67812000  0.39844000  1
  C  C71  1  0.23541000  0.64387000  0.37348000  1
  C  C72  1  0.41546000  0.51486000  0.65840000  1
  C  C73  1  0.39076000  0.51526000  0.68390000  1
  C  C74  1  0.27968000  0.45520000  0.67812000  1
  C  C75  1  0.27039000  0.40846000  0.64387000  1
  C  C76  1  0.85646000  0.09940000  0.51486000  1
  C  C77  1  0.83136000  0.12450000  0.51526000  1
  C  C78  1  0.77708000  0.17552000  0.45520000  1
  C  C79  1  0.76459000  0.13807000  0.40846000  1
  C  C80  1  0.14354000  0.48514000  0.90060000  1
  C  C81  1  0.16864000  0.48474000  0.87550000  1
  C  C82  1  0.22292000  0.54480000  0.82448000  1
  C  C83  1  0.23541000  0.59154000  0.86193000  1
  C  C84  1  0.58454000  0.34160000  0.48514000  1
  C  C85  1  0.60924000  0.31610000  0.48474000  1
  C  C86  1  0.72032000  0.32188000  0.54480000  1
  C  C87  1  0.72961000  0.35613000  0.59154000  1
  C  C88  1  0.85646000  0.75706000  0.34160000  1
  C  C89  1  0.83136000  0.70686000  0.31610000  1
  C  C90  1  0.77708000  0.60156000  0.32188000  1
  C  C91  1  0.76459000  0.62652000  0.35613000  1
  C  C92  1  0.41546000  0.90060000  0.75706000  1
  C  C93  1  0.39076000  0.87550000  0.70686000  1
  C  C94  1  0.27968000  0.82448000  0.60156000  1
  C  C95  1  0.27039000  0.86193000  0.62652000  1
  C  C96  1  0.48514000  0.90060000  0.14354000  1
  C  C97  1  0.48474000  0.87550000  0.16864000  1
  C  C98  1  0.54480000  0.82448000  0.22292000  1
  C  C99  1  0.59154000  0.86193000  0.23541000  1
  C  C100  1  0.50000000  0.91813000  0.08187000  1
  C  C101  1  0.50000000  0.89077000  0.10923000  1
  C  C102  1  0.50000000  0.84028000  0.15972000  1
  C  C103  1  0.50000000  0.81310000  0.18690000  1
  C  C104  1  0.75706000  0.34160000  0.85646000  1
  C  C105  1  0.70686000  0.31610000  0.83136000  1
  C  C106  1  0.60156000  0.32188000  0.77708000  1
  C  C107  1  0.62652000  0.35613000  0.76459000  1
  C  C108  1  0.83626000  0.41813000  0.91813000  1
  C  C109  1  0.78154000  0.39077000  0.89077000  1
  C  C110  1  0.68056000  0.34028000  0.84028000  1
  C  C111  1  0.62620000  0.31310000  0.81310000  1
  C  C112  1  0.48514000  0.58454000  0.34160000  1
  C  C113  1  0.48474000  0.60924000  0.31610000  1
  C  C114  1  0.54480000  0.72032000  0.32188000  1
  C  C115  1  0.59154000  0.72961000  0.35613000  1
  C  C116  1  0.50000000  0.58187000  0.41813000  1
  C  C117  1  0.50000000  0.60923000  0.39077000  1
  C  C118  1  0.50000000  0.65972000  0.34028000  1
  C  C119  1  0.50000000  0.68690000  0.31310000  1
  C  C120  1  0.24294000  0.09940000  0.58454000  1
  C  C121  1  0.29314000  0.12450000  0.60924000  1
  C  C122  1  0.39844000  0.17552000  0.72032000  1
  C  C123  1  0.37348000  0.13807000  0.72961000  1
  C  C124  1  0.16374000  0.08187000  0.58187000  1
  C  C125  1  0.21846000  0.10923000  0.60923000  1
  C  C126  1  0.31944000  0.15972000  0.65972000  1
  C  C127  1  0.37380000  0.18690000  0.68690000  1
  C  C128  1  0.51486000  0.85646000  0.09940000  1
  C  C129  1  0.51526000  0.83136000  0.12450000  1
  C  C130  1  0.45520000  0.77708000  0.17552000  1
  C  C131  1  0.40846000  0.76459000  0.13807000  1
  C  C132  1  0.51486000  0.65840000  0.41546000  1
  C  C133  1  0.51526000  0.68390000  0.39076000  1
  C  C134  1  0.45520000  0.67812000  0.27968000  1
  C  C135  1  0.40846000  0.64387000  0.27039000  1
  C  C136  1  0.24294000  0.14354000  0.65840000  1
  C  C137  1  0.29314000  0.16864000  0.68390000  1
  C  C138  1  0.39844000  0.22292000  0.67812000  1
  C  C139  1  0.37348000  0.23541000  0.64387000  1
  C  C140  1  0.75706000  0.41546000  0.90060000  1
  C  C141  1  0.70686000  0.39076000  0.87550000  1
  C  C142  1  0.60156000  0.27968000  0.82448000  1
  C  C143  1  0.62652000  0.27039000  0.86193000  1
  C  C144  1  0.65840000  0.14354000  0.24294000  1
  C  C145  1  0.68390000  0.16864000  0.29314000  1
  C  C146  1  0.67812000  0.22292000  0.39844000  1
  C  C147  1  0.64387000  0.23541000  0.37348000  1
  C  C148  1  0.58187000  0.08187000  0.16374000  1
  C  C149  1  0.60923000  0.10923000  0.21846000  1
  C  C150  1  0.65972000  0.15972000  0.31944000  1
  C  C151  1  0.68690000  0.18690000  0.37380000  1
  C  C152  1  0.90060000  0.48514000  0.14354000  1
  C  C153  1  0.87550000  0.48474000  0.16864000  1
  C  C154  1  0.82448000  0.54480000  0.22292000  1
  C  C155  1  0.86193000  0.59154000  0.23541000  1
  C  C156  1  0.91813000  0.50000000  0.08187000  1
  C  C157  1  0.89077000  0.50000000  0.10923000  1
  C  C158  1  0.84028000  0.50000000  0.15972000  1
  C  C159  1  0.81310000  0.50000000  0.18690000  1
  C  C160  1  0.34160000  0.58454000  0.48514000  1
  C  C161  1  0.31610000  0.60924000  0.48474000  1
  C  C162  1  0.32188000  0.72032000  0.54480000  1
  C  C163  1  0.35613000  0.72961000  0.59154000  1
  C  C164  1  0.41813000  0.58187000  0.50000000  1
  C  C165  1  0.39077000  0.60923000  0.50000000  1
  C  C166  1  0.34028000  0.65972000  0.50000000  1
  C  C167  1  0.31310000  0.68690000  0.50000000  1
  C  C168  1  0.09940000  0.24294000  0.58454000  1
  C  C169  1  0.12450000  0.29314000  0.60924000  1
  C  C170  1  0.17552000  0.39844000  0.72032000  1
  C  C171  1  0.13807000  0.37348000  0.72961000  1
  C  C172  1  0.08187000  0.16374000  0.58187000  1
  C  C173  1  0.10923000  0.21846000  0.60923000  1
  C  C174  1  0.15972000  0.31944000  0.65972000  1
  C  C175  1  0.18690000  0.37380000  0.68690000  1
  C  C176  1  0.90060000  0.41546000  0.75706000  1
  C  C177  1  0.87550000  0.39076000  0.70686000  1
  C  C178  1  0.82448000  0.27968000  0.60156000  1
  C  C179  1  0.86193000  0.27039000  0.62652000  1
  C  C180  1  0.91813000  0.41813000  0.83626000  1
  C  C181  1  0.89077000  0.39077000  0.78154000  1
  C  C182  1  0.84028000  0.34028000  0.68056000  1
  C  C183  1  0.81310000  0.31310000  0.62620000  1
  C  C184  1  0.65840000  0.51486000  0.41546000  1
  C  C185  1  0.68390000  0.51526000  0.39076000  1
  C  C186  1  0.67812000  0.45520000  0.27968000  1
  C  C187  1  0.64387000  0.40846000  0.27039000  1
  C  C188  1  0.58187000  0.50000000  0.41813000  1
  C  C189  1  0.60923000  0.50000000  0.39077000  1
  C  C190  1  0.65972000  0.50000000  0.34028000  1
  C  C191  1  0.68690000  0.50000000  0.31310000  1
  C  C192  1  0.09940000  0.85646000  0.51486000  1
  C  C193  1  0.12450000  0.83136000  0.51526000  1
  C  C194  1  0.17552000  0.77708000  0.45520000  1
  C  C195  1  0.13807000  0.76459000  0.40846000  1
  C  C196  1  0.08187000  0.91813000  0.50000000  1
  C  C197  1  0.10923000  0.89077000  0.50000000  1
  C  C198  1  0.15972000  0.84028000  0.50000000  1
  C  C199  1  0.18690000  0.81310000  0.50000000  1
  C  C200  1  0.34160000  0.75706000  0.85646000  1
  C  C201  1  0.31610000  0.70686000  0.83136000  1
  C  C202  1  0.32188000  0.60156000  0.77708000  1
  C  C203  1  0.35613000  0.62652000  0.76459000  1
  C  C204  1  0.41813000  0.83626000  0.91813000  1
  C  C205  1  0.39077000  0.78154000  0.89077000  1
  C  C206  1  0.34028000  0.68056000  0.84028000  1
  C  C207  1  0.31310000  0.62620000  0.81310000  1
  C  C208  1  0.41546000  0.75706000  0.90060000  1
  C  C209  1  0.39076000  0.70686000  0.87550000  1
  C  C210  1  0.27968000  0.60156000  0.82448000  1
  C  C211  1  0.27039000  0.62652000  0.86193000  1
  C  C212  1  0.85646000  0.34160000  0.75706000  1
  C  C213  1  0.83136000  0.31610000  0.70686000  1
  C  C214  1  0.77708000  0.32188000  0.60156000  1
  C  C215  1  0.76459000  0.35613000  0.62652000  1
  C  C216  1  0.58454000  0.48514000  0.34160000  1
  C  C217  1  0.60924000  0.48474000  0.31610000  1
  C  C218  1  0.72032000  0.54480000  0.32188000  1
  C  C219  1  0.72961000  0.59154000  0.35613000  1
  C  C220  1  0.14354000  0.90060000  0.48514000  1
  C  C221  1  0.16864000  0.87550000  0.48474000  1
  C  C222  1  0.22292000  0.82448000  0.54480000  1
  C  C223  1  0.23541000  0.86193000  0.59154000  1
  C  C224  1  0.85646000  0.51486000  0.09940000  1
  C  C225  1  0.83136000  0.51526000  0.12450000  1
  C  C226  1  0.77708000  0.45520000  0.17552000  1
  C  C227  1  0.76459000  0.40846000  0.13807000  1
  C  C228  1  0.41546000  0.65840000  0.51486000  1
  C  C229  1  0.39076000  0.68390000  0.51526000  1
  C  C230  1  0.27968000  0.67812000  0.45520000  1
  C  C231  1  0.27039000  0.64387000  0.40846000  1
  C  C232  1  0.14354000  0.24294000  0.65840000  1
  C  C233  1  0.16864000  0.29314000  0.68390000  1
  C  C234  1  0.22292000  0.39844000  0.67812000  1
  C  C235  1  0.23541000  0.37348000  0.64387000  1
  C  C236  1  0.58454000  0.09940000  0.24294000  1
  C  C237  1  0.60924000  0.12450000  0.29314000  1
  C  C238  1  0.72032000  0.17552000  0.39844000  1
  C  C239  1  0.72961000  0.13807000  0.37348000  1
  C  C240  1  0.51486000  0.09940000  0.85646000  1
  C  C241  1  0.51526000  0.12450000  0.83136000  1
  C  C242  1  0.45520000  0.17552000  0.77708000  1
  C  C243  1  0.40846000  0.13807000  0.76459000  1
  C  C244  1  0.50000000  0.08187000  0.91813000  1
  C  C245  1  0.50000000  0.10923000  0.89077000  1
  C  C246  1  0.50000000  0.15972000  0.84028000  1
  C  C247  1  0.50000000  0.18690000  0.81310000  1
  C  C248  1  0.24294000  0.65840000  0.14354000  1
  C  C249  1  0.29314000  0.68390000  0.16864000  1
  C  C250  1  0.39844000  0.67812000  0.22292000  1
  C  C251  1  0.37348000  0.64387000  0.23541000  1
  C  C252  1  0.16374000  0.58187000  0.08187000  1
  C  C253  1  0.21846000  0.60923000  0.10923000  1
  C  C254  1  0.31944000  0.65972000  0.15972000  1
  C  C255  1  0.37380000  0.68690000  0.18690000  1
  C  C256  1  0.51486000  0.41546000  0.65840000  1
  C  C257  1  0.51526000  0.39076000  0.68390000  1
  C  C258  1  0.45520000  0.27968000  0.67812000  1
  C  C259  1  0.40846000  0.27039000  0.64387000  1
  C  C260  1  0.50000000  0.41813000  0.58187000  1
  C  C261  1  0.50000000  0.39077000  0.60923000  1
  C  C262  1  0.50000000  0.34028000  0.65972000  1
  C  C263  1  0.50000000  0.31310000  0.68690000  1
  C  C264  1  0.75706000  0.90060000  0.41546000  1
  C  C265  1  0.70686000  0.87550000  0.39076000  1
  C  C266  1  0.60156000  0.82448000  0.27968000  1
  C  C267  1  0.62652000  0.86193000  0.27039000  1
  C  C268  1  0.83626000  0.91813000  0.41813000  1
  C  C269  1  0.78154000  0.89077000  0.39077000  1
  C  C270  1  0.68056000  0.84028000  0.34028000  1
  C  C271  1  0.62620000  0.81310000  0.31310000  1
  C  C272  1  0.48514000  0.14354000  0.90060000  1
  C  C273  1  0.48474000  0.16864000  0.87550000  1
  C  C274  1  0.54480000  0.22292000  0.82448000  1
  C  C275  1  0.59154000  0.23541000  0.86193000  1
  C  C276  1  0.48514000  0.34160000  0.58454000  1
  C  C277  1  0.48474000  0.31610000  0.60924000  1
  C  C278  1  0.54480000  0.32188000  0.72032000  1
  C  C279  1  0.59154000  0.35613000  0.72961000  1
  C  C280  1  0.75706000  0.85646000  0.34160000  1
  C  C281  1  0.70686000  0.83136000  0.31610000  1
  C  C282  1  0.60156000  0.77708000  0.32188000  1
  C  C283  1  0.62652000  0.76459000  0.35613000  1
  C  C284  1  0.24294000  0.58454000  0.09940000  1
  C  C285  1  0.29314000  0.60924000  0.12450000  1
  C  C286  1  0.39844000  0.72032000  0.17552000  1
  C  C287  1  0.37348000  0.72961000  0.13807000  1
  Cu  Cu288  1  0.25000000  0.75000000  0.50000000  1
  Cu  Cu289  1  0.25000000  0.50000000  0.75000000  1
  Cu  Cu290  1  0.75000000  0.25000000  0.50000000  1
  Cu  Cu291  1  0.75000000  0.50000000  0.25000000  1
  Cu  Cu292  1  0.50000000  0.75000000  0.25000000  1
  Cu  Cu293  1  0.50000000  0.25000000  0.75000000  1
  H  H294  1  0.32547000  0.85023000  0.77490000  1
  H  H295  1  0.28213000  0.80787000  0.68968000  1
  H  H296  1  0.37508000  0.77843000  0.66107000  1
  H  H297  1  0.07533000  0.52476000  0.85023000  1
  H  H298  1  0.11819000  0.52574000  0.80787000  1
  H  H299  1  0.11736000  0.40335000  0.77843000  1
  H  H300  1  0.67453000  0.44943000  0.52476000  1
  H  H301  1  0.71787000  0.40755000  0.52574000  1
  H  H302  1  0.62492000  0.28599000  0.40335000  1
  H  H303  1  0.92467000  0.77490000  0.44943000  1
  H  H304  1  0.88181000  0.68968000  0.40755000  1
  H  H305  1  0.88264000  0.66107000  0.28599000  1
  H  H306  1  0.07533000  0.55057000  0.22510000  1
  H  H307  1  0.11819000  0.59245000  0.31032000  1
  H  H308  1  0.11736000  0.71401000  0.33893000  1
  H  H309  1  0.32547000  0.47524000  0.55057000  1
  H  H310  1  0.28213000  0.47426000  0.59245000  1
  H  H311  1  0.37508000  0.59665000  0.71401000  1
  H  H312  1  0.92467000  0.14977000  0.47524000  1
  H  H313  1  0.88181000  0.19213000  0.47426000  1
  H  H314  1  0.88264000  0.22157000  0.59665000  1
  H  H315  1  0.67453000  0.22510000  0.14977000  1
  H  H316  1  0.71787000  0.31032000  0.19213000  1
  H  H317  1  0.62492000  0.33893000  0.22157000  1
  H  H318  1  0.55057000  0.22510000  0.07533000  1
  H  H319  1  0.59245000  0.31032000  0.11819000  1
  H  H320  1  0.71401000  0.33893000  0.11736000  1
  H  H321  1  0.14977000  0.67453000  0.22510000  1
  H  H322  1  0.19213000  0.71787000  0.31032000  1
  H  H323  1  0.22157000  0.62492000  0.33893000  1
  H  H324  1  0.44943000  0.52476000  0.67453000  1
  H  H325  1  0.40755000  0.52574000  0.71787000  1
  H  H326  1  0.28599000  0.40335000  0.62492000  1
  H  H327  1  0.85023000  0.07533000  0.52476000  1
  H  H328  1  0.80787000  0.11819000  0.52574000  1
  H  H329  1  0.77843000  0.11736000  0.40335000  1
  H  H330  1  0.14977000  0.47524000  0.92467000  1
  H  H331  1  0.19213000  0.47426000  0.88181000  1
  H  H332  1  0.22157000  0.59665000  0.88264000  1
  H  H333  1  0.55057000  0.32547000  0.47524000  1
  H  H334  1  0.59245000  0.28213000  0.47426000  1
  H  H335  1  0.71401000  0.37508000  0.59665000  1
  H  H336  1  0.85023000  0.77490000  0.32547000  1
  H  H337  1  0.80787000  0.68968000  0.28213000  1
  H  H338  1  0.77843000  0.66107000  0.37508000  1
  H  H339  1  0.44943000  0.92467000  0.77490000  1
  H  H340  1  0.40755000  0.88181000  0.68968000  1
  H  H341  1  0.28599000  0.88264000  0.66107000  1
  H  H342  1  0.47524000  0.92467000  0.14977000  1
  H  H343  1  0.47426000  0.88181000  0.19213000  1
  H  H344  1  0.59665000  0.88264000  0.22157000  1
  H  H345  1  0.77490000  0.32547000  0.85023000  1
  H  H346  1  0.68968000  0.28213000  0.80787000  1
  H  H347  1  0.66107000  0.37508000  0.77843000  1
  H  H348  1  0.47524000  0.55057000  0.32547000  1
  H  H349  1  0.47426000  0.59245000  0.28213000  1
  H  H350  1  0.59665000  0.71401000  0.37508000  1
  H  H351  1  0.22510000  0.07533000  0.55057000  1
  H  H352  1  0.31032000  0.11819000  0.59245000  1
  H  H353  1  0.33893000  0.11736000  0.71401000  1
  H  H354  1  0.52476000  0.85023000  0.07533000  1
  H  H355  1  0.52574000  0.80787000  0.11819000  1
  H  H356  1  0.40335000  0.77843000  0.11736000  1
  H  H357  1  0.52476000  0.67453000  0.44943000  1
  H  H358  1  0.52574000  0.71787000  0.40755000  1
  H  H359  1  0.40335000  0.62492000  0.28599000  1
  H  H360  1  0.22510000  0.14977000  0.67453000  1
  H  H361  1  0.31032000  0.19213000  0.71787000  1
  H  H362  1  0.33893000  0.22157000  0.62492000  1
  H  H363  1  0.77490000  0.44943000  0.92467000  1
  H  H364  1  0.68968000  0.40755000  0.88181000  1
  H  H365  1  0.66107000  0.28599000  0.88264000  1
  H  H366  1  0.67453000  0.14977000  0.22510000  1
  H  H367  1  0.71787000  0.19213000  0.31032000  1
  H  H368  1  0.62492000  0.22157000  0.33893000  1
  H  H369  1  0.92467000  0.47524000  0.14977000  1
  H  H370  1  0.88181000  0.47426000  0.19213000  1
  H  H371  1  0.88264000  0.59665000  0.22157000  1
  H  H372  1  0.32547000  0.55057000  0.47524000  1
  H  H373  1  0.28213000  0.59245000  0.47426000  1
  H  H374  1  0.37508000  0.71401000  0.59665000  1
  H  H375  1  0.07533000  0.22510000  0.55057000  1
  H  H376  1  0.11819000  0.31032000  0.59245000  1
  H  H377  1  0.11736000  0.33893000  0.71401000  1
  H  H378  1  0.92467000  0.44943000  0.77490000  1
  H  H379  1  0.88181000  0.40755000  0.68968000  1
  H  H380  1  0.88264000  0.28599000  0.66107000  1
  H  H381  1  0.67453000  0.52476000  0.44943000  1
  H  H382  1  0.71787000  0.52574000  0.40755000  1
  H  H383  1  0.62492000  0.40335000  0.28599000  1
  H  H384  1  0.07533000  0.85023000  0.52476000  1
  H  H385  1  0.11819000  0.80787000  0.52574000  1
  H  H386  1  0.11736000  0.77843000  0.40335000  1
  H  H387  1  0.32547000  0.77490000  0.85023000  1
  H  H388  1  0.28213000  0.68968000  0.80787000  1
  H  H389  1  0.37508000  0.66107000  0.77843000  1
  H  H390  1  0.44943000  0.77490000  0.92467000  1
  H  H391  1  0.40755000  0.68968000  0.88181000  1
  H  H392  1  0.28599000  0.66107000  0.88264000  1
  H  H393  1  0.85023000  0.32547000  0.77490000  1
  H  H394  1  0.80787000  0.28213000  0.68968000  1
  H  H395  1  0.77843000  0.37508000  0.66107000  1
  H  H396  1  0.55057000  0.47524000  0.32547000  1
  H  H397  1  0.59245000  0.47426000  0.28213000  1
  H  H398  1  0.71401000  0.59665000  0.37508000  1
  H  H399  1  0.14977000  0.92467000  0.47524000  1
  H  H400  1  0.19213000  0.88181000  0.47426000  1
  H  H401  1  0.22157000  0.88264000  0.59665000  1
  H  H402  1  0.85023000  0.52476000  0.07533000  1
  H  H403  1  0.80787000  0.52574000  0.11819000  1
  H  H404  1  0.77843000  0.40335000  0.11736000  1
  H  H405  1  0.44943000  0.67453000  0.52476000  1
  H  H406  1  0.40755000  0.71787000  0.52574000  1
  H  H407  1  0.28599000  0.62492000  0.40335000  1
  H  H408  1  0.14977000  0.22510000  0.67453000  1
  H  H409  1  0.19213000  0.31032000  0.71787000  1
  H  H410  1  0.22157000  0.33893000  0.62492000  1
  H  H411  1  0.55057000  0.07533000  0.22510000  1
  H  H412  1  0.59245000  0.11819000  0.31032000  1
  H  H413  1  0.71401000  0.11736000  0.33893000  1
  H  H414  1  0.52476000  0.07533000  0.85023000  1
  H  H415  1  0.52574000  0.11819000  0.80787000  1
  H  H416  1  0.40335000  0.11736000  0.77843000  1
  H  H417  1  0.22510000  0.67453000  0.14977000  1
  H  H418  1  0.31032000  0.71787000  0.19213000  1
  H  H419  1  0.33893000  0.62492000  0.22157000  1
  H  H420  1  0.52476000  0.44943000  0.67453000  1
  H  H421  1  0.52574000  0.40755000  0.71787000  1
  H  H422  1  0.40335000  0.28599000  0.62492000  1
  H  H423  1  0.77490000  0.92467000  0.44943000  1
  H  H424  1  0.68968000  0.88181000  0.40755000  1
  H  H425  1  0.66107000  0.88264000  0.28599000  1
  H  H426  1  0.47524000  0.14977000  0.92467000  1
  H  H427  1  0.47426000  0.19213000  0.88181000  1
  H  H428  1  0.59665000  0.22157000  0.88264000  1
  H  H429  1  0.47524000  0.32547000  0.55057000  1
  H  H430  1  0.47426000  0.28213000  0.59245000  1
  H  H431  1  0.59665000  0.37508000  0.71401000  1
  H  H432  1  0.77490000  0.85023000  0.32547000  1
  H  H433  1  0.68968000  0.80787000  0.28213000  1
  H  H434  1  0.66107000  0.77843000  0.37508000  1
  H  H435  1  0.22510000  0.55057000  0.07533000  1
  H  H436  1  0.31032000  0.59245000  0.11819000  1
  H  H437  1  0.33893000  0.71401000  0.11736000  1
  N  N438  1  0.30167000  0.74980000  0.55187000  1
  N  N439  1  0.19793000  0.44813000  0.74980000  1
  N  N440  1  0.69833000  0.25020000  0.44813000  1
  N  N441  1  0.80207000  0.55187000  0.25020000  1
  N  N442  1  0.19793000  0.74980000  0.44813000  1
  N  N443  1  0.30167000  0.55187000  0.74980000  1
  N  N444  1  0.80207000  0.25020000  0.55187000  1
  N  N445  1  0.69833000  0.44813000  0.25020000  1
  N  N446  1  0.74980000  0.44813000  0.19793000  1
  N  N447  1  0.25020000  0.69833000  0.44813000  1
  N  N448  1  0.25020000  0.44813000  0.69833000  1
  N  N449  1  0.74980000  0.19793000  0.44813000  1
  N  N450  1  0.25020000  0.55187000  0.80207000  1
  N  N451  1  0.74980000  0.30167000  0.55187000  1
  N  N452  1  0.74980000  0.55187000  0.30167000  1
  N  N453  1  0.25020000  0.80207000  0.55187000  1
  N  N454  1  0.55187000  0.80207000  0.25020000  1
  N  N455  1  0.55187000  0.30167000  0.74980000  1
  N  N456  1  0.55187000  0.74980000  0.30167000  1
  N  N457  1  0.44813000  0.19793000  0.74980000  1
  N  N458  1  0.44813000  0.74980000  0.19793000  1
  N  N459  1  0.44813000  0.69833000  0.25020000  1
  N  N460  1  0.44813000  0.25020000  0.69833000  1
  N  N461  1  0.55187000  0.25020000  0.80207000  1
  O  O462  1  0.39439000  0.90862000  0.85783000  1
  O  O463  1  0.34340000  0.91850000  0.91850000  1
  O  O464  1  0.48320000  0.93560000  0.93560000  1
  O  O465  1  0.43472000  1.00000000  1.00000000  1
  O  O466  1  0.05079000  0.51423000  0.90862000  1
  O  O467  1  1.00000000  0.57510000  0.91850000  1
  O  O468  1  1.00000000  0.45240000  0.93560000  1
  O  O469  1  1.00000000  0.56528000  1.00000000  1
  O  O470  1  0.60561000  0.46344000  0.51423000  1
  O  O471  1  0.65660000  0.57510000  0.57510000  1
  O  O472  1  0.51680000  0.45240000  0.45240000  1
  O  O473  1  0.56528000  0.56528000  0.56528000  1
  O  O474  1  0.94921000  0.85783000  0.46344000  1
  O  O475  1  0.00000000  0.91850000  0.57510000  1
  O  O476  1  0.00000000  0.93560000  0.45240000  1
  O  O477  1  0.00000000  1.00000000  0.56528000  1
  O  O478  1  0.05079000  0.53656000  0.14217000  1
  O  O479  1  0.00000000  0.42490000  0.08150000  1
  O  O480  1  0.00000000  0.54760000  0.06440000  1
  O  O481  1  1.00000000  0.43472000  0.00000000  1
  O  O482  1  0.39439000  0.48577000  0.53656000  1
  O  O483  1  0.34340000  0.42490000  0.42490000  1
  O  O484  1  0.48320000  0.54760000  0.54760000  1
  O  O485  1  0.43472000  0.43472000  0.43472000  1
  O  O486  1  0.94921000  0.09138000  0.48577000  1
  O  O487  1  0.00000000  0.08150000  0.42490000  1
  O  O488  1  0.00000000  0.06440000  0.54760000  1
  O  O489  1  0.00000000  1.00000000  0.43472000  1
  O  O490  1  0.60561000  0.14217000  0.09138000  1
  O  O491  1  0.65660000  0.08150000  0.08150000  1
  O  O492  1  0.51680000  0.06440000  0.06440000  1
  O  O493  1  0.56528000  0.00000000  1.00000000  1
  O  O494  1  0.53656000  0.14217000  0.05079000  1
  O  O495  1  0.42490000  0.08150000  1.00000000  1
  O  O496  1  0.54760000  0.06440000  1.00000000  1
  O  O497  1  0.09138000  0.60561000  0.14217000  1
  O  O498  1  0.08150000  0.65660000  0.08150000  1
  O  O499  1  0.06440000  0.51680000  0.06440000  1
  O  O500  1  0.46344000  0.51423000  0.60561000  1
  O  O501  1  0.57510000  0.57510000  0.65660000  1
  O  O502  1  0.45240000  0.45240000  0.51680000  1
  O  O503  1  0.90862000  0.05079000  0.51423000  1
  O  O504  1  0.91850000  0.00000000  0.57510000  1
  O  O505  1  0.93560000  0.00000000  0.45240000  1
  O  O506  1  0.09138000  0.48577000  0.94921000  1
  O  O507  1  0.08150000  0.42490000  0.00000000  1
  O  O508  1  0.06440000  0.54760000  0.00000000  1
  O  O509  1  0.53656000  0.39439000  0.48577000  1
  O  O510  1  0.42490000  0.34340000  0.42490000  1
  O  O511  1  0.54760000  0.48320000  0.54760000  1
  O  O512  1  0.90862000  0.85783000  0.39439000  1
  O  O513  1  0.91850000  0.91850000  0.34340000  1
  O  O514  1  0.93560000  0.93560000  0.48320000  1
  O  O515  1  0.46344000  0.94921000  0.85783000  1
  O  O516  1  0.57510000  1.00000000  0.91850000  1
  O  O517  1  0.45240000  1.00000000  0.93560000  1
  O  O518  1  0.48577000  0.94921000  0.09138000  1
  O  O519  1  0.42490000  1.00000000  0.08150000  1
  O  O520  1  0.54760000  1.00000000  0.06440000  1
  O  O521  1  0.85783000  0.39439000  0.90862000  1
  O  O522  1  0.91850000  0.34340000  0.91850000  1
  O  O523  1  0.93560000  0.48320000  0.93560000  1
  O  O524  1  0.48577000  0.53656000  0.39439000  1
  O  O525  1  0.42490000  0.42490000  0.34340000  1
  O  O526  1  0.54760000  0.54760000  0.48320000  1
  O  O527  1  0.14217000  0.05079000  0.53656000  1
  O  O528  1  0.08150000  0.00000000  0.42490000  1
  O  O529  1  0.06440000  0.00000000  0.54760000  1
  O  O530  1  0.51423000  0.90862000  0.05079000  1
  O  O531  1  0.57510000  0.91850000  1.00000000  1
  O  O532  1  0.45240000  0.93560000  1.00000000  1
  O  O533  1  0.51423000  0.60561000  0.46344000  1
  O  O534  1  0.57510000  0.65660000  0.57510000  1
  O  O535  1  0.45240000  0.51680000  0.45240000  1
  O  O536  1  0.14217000  0.09138000  0.60561000  1
  O  O537  1  0.08150000  0.08150000  0.65660000  1
  O  O538  1  0.06440000  0.06440000  0.51680000  1
  O  O539  1  0.85783000  0.46344000  0.94921000  1
  O  O540  1  0.91850000  0.57510000  0.00000000  1
  O  O541  1  0.93560000  0.45240000  1.00000000  1
  O  O542  1  0.60561000  0.09138000  0.14217000  1
  O  O543  1  0.94921000  0.48577000  0.09138000  1
  O  O544  1  0.39439000  0.53656000  0.48577000  1
  O  O545  1  0.05079000  0.14217000  0.53656000  1
  O  O546  1  0.94921000  0.46344000  0.85783000  1
  O  O547  1  0.60561000  0.51423000  0.46344000  1
  O  O548  1  0.05079000  0.90862000  0.51423000  1
  O  O549  1  0.39439000  0.85783000  0.90862000  1
  O  O550  1  0.46344000  0.85783000  0.94921000  1
  O  O551  1  0.90862000  0.39439000  0.85783000  1
  O  O552  1  0.53656000  0.48577000  0.39439000  1
  O  O553  1  0.09138000  0.94921000  0.48577000  1
  O  O554  1  0.90862000  0.51423000  0.05079000  1
  O  O555  1  0.46344000  0.60561000  0.51423000  1
  O  O556  1  0.09138000  0.14217000  0.60561000  1
  O  O557  1  0.53656000  0.05079000  0.14217000  1
  O  O558  1  0.51423000  0.05079000  0.90862000  1
  O  O559  1  0.14217000  0.60561000  0.09138000  1
  O  O560  1  0.51423000  0.46344000  0.60561000  1
  O  O561  1  0.85783000  0.94921000  0.46344000  1
  O  O562  1  0.48577000  0.09138000  0.94921000  1
  O  O563  1  0.48577000  0.39439000  0.53656000  1
  O  O564  1  0.85783000  0.90862000  0.39439000  1
  O  O565  1  0.14217000  0.53656000  0.05079000  1
  Zr  Zr566  1  0.41434000  0.93509000  0.93509000  1
  Zr  Zr567  1  1.00000000  0.52075000  0.93509000  1
  Zr  Zr568  1  0.58566000  0.52075000  0.52075000  1
  Zr  Zr569  1  0.00000000  0.93509000  0.52075000  1
  Zr  Zr570  1  0.00000000  0.47925000  0.06491000  1
  Zr  Zr571  1  0.41434000  0.47925000  0.47925000  1
  Zr  Zr572  1  0.00000000  0.06491000  0.47925000  1
  Zr  Zr573  1  0.58566000  0.06491000  0.06491000  1
  Zr  Zr574  1  0.47925000  0.06491000  1.00000000  1
  Zr  Zr575  1  0.06491000  0.58566000  0.06491000  1
  Zr  Zr576  1  0.52075000  0.52075000  0.58566000  1
  Zr  Zr577  1  0.93509000  0.00000000  0.52075000  1
  Zr  Zr578  1  0.06491000  0.47925000  0.00000000  1
  Zr  Zr579  1  0.47925000  0.41434000  0.47925000  1
  Zr  Zr580  1  0.93509000  0.93509000  0.41434000  1
  Zr  Zr581  1  0.52075000  1.00000000  0.93509000  1
  Zr  Zr582  1  0.47925000  0.00000000  0.06491000  1
  Zr  Zr583  1  0.93509000  0.41434000  0.93509000  1
  Zr  Zr584  1  0.47925000  0.47925000  0.41434000  1
  Zr  Zr585  1  0.06491000  0.00000000  0.47925000  1
  Zr  Zr586  1  0.52075000  0.93509000  1.00000000  1
  Zr  Zr587  1  0.52075000  0.58566000  0.52075000  1
  Zr  Zr588  1  0.06491000  0.06491000  0.58566000  1
  Zr  Zr589  1  0.93509000  0.52075000  1.00000000  1
