# generated using pymatgen
data_Zr3H30C59(O9F)2
_symmetry_space_group_name_H-M   'P 1'
_cell_length_a   16.41660000
_cell_length_b   39.44600000
_cell_length_c   39.44600000
_cell_angle_alpha   120.00000000
_cell_angle_beta   90.00000000
_cell_angle_gamma   90.00000000
_symmetry_Int_Tables_number   1
_chemical_formula_structural   Zr3H30C59(O9F)2
_chemical_formula_sum   'Zr18 H180 C354 O108 F12'
_cell_volume   22121.76573595
_cell_formula_units_Z   6
loop_
 _symmetry_equiv_pos_site_id
 _symmetry_equiv_pos_as_xyz
  1  'x, y, z'
loop_
 _atom_site_type_symbol
 _atom_site_label
 _atom_site_symmetry_multiplicity
 _atom_site_fract_x
 _atom_site_fract_y
 _atom_site_fract_z
 _atom_site_occupancy
  Zr  Zr0  1  0.39245000  0.00000000  0.54491000  1
  Zr  Zr1  1  0.39245000  0.54491000  0.00000000  1
  Zr  Zr2  1  0.39245000  0.45509000  0.45509000  1
  Zr  Zr3  1  0.39245000  0.00000000  0.45509000  1
  Zr  Zr4  1  0.39245000  0.45509000  1.00000000  1
  Zr  Zr5  1  0.39245000  0.54491000  0.54491000  1
  Zr  Zr6  1  0.60755000  0.45509000  0.45509000  1
  Zr  Zr7  1  0.60755000  0.54491000  0.00000000  1
  Zr  Zr8  1  0.60755000  0.00000000  0.54491000  1
  Zr  Zr9  1  0.60755000  0.54491000  0.54491000  1
  Zr  Zr10  1  0.60755000  0.45509000  1.00000000  1
  Zr  Zr11  1  0.60755000  0.00000000  0.45509000  1
  Zr  Zr12  1  0.50000000  0.07181000  0.53590000  1
  Zr  Zr13  1  0.50000000  0.46409000  0.92818000  1
  Zr  Zr14  1  0.50000000  0.46409000  0.53590000  1
  Zr  Zr15  1  0.50000000  0.92819000  0.46410000  1
  Zr  Zr16  1  0.50000000  0.53591000  0.07182000  1
  Zr  Zr17  1  0.50000000  0.53591000  0.46410000  1
  H  H18  1  0.74639000  0.08846000  0.64664000  1
  H  H19  1  0.82935000  0.13705000  0.69505000  1
  H  H20  1  0.71398000  0.21863000  0.67975000  1
  H  H21  1  0.63171000  0.17041000  0.63213000  1
  H  H22  1  0.92998000  0.16486000  0.66922000  1
  H  H23  1  0.74639000  0.55818000  0.91154000  1
  H  H24  1  0.82935000  0.55800000  0.86295000  1
  H  H25  1  0.71398000  0.46112000  0.78137000  1
  H  H26  1  0.63171000  0.46172000  0.82959000  1
  H  H27  1  0.92998000  0.50436000  0.83514000  1
  H  H28  1  0.74639000  0.35336000  0.44182000  1
  H  H29  1  0.82935000  0.30495000  0.44200000  1
  H  H30  1  0.71398000  0.32025000  0.53888000  1
  H  H31  1  0.63171000  0.36787000  0.53828000  1
  H  H32  1  0.92998000  0.33078000  0.49564000  1
  H  H33  1  0.74639000  0.91154000  0.35336000  1
  H  H34  1  0.82935000  0.86295000  0.30495000  1
  H  H35  1  0.71398000  0.78137000  0.32025000  1
  H  H36  1  0.63171000  0.82959000  0.36787000  1
  H  H37  1  0.92998000  0.83514000  0.33078000  1
  H  H38  1  0.74639000  0.44182000  0.08846000  1
  H  H39  1  0.82935000  0.44200000  0.13705000  1
  H  H40  1  0.71398000  0.53888000  0.21863000  1
  H  H41  1  0.63171000  0.53828000  0.17041000  1
  H  H42  1  0.92998000  0.49564000  0.16486000  1
  H  H43  1  0.74639000  0.64664000  0.55818000  1
  H  H44  1  0.82935000  0.69505000  0.55800000  1
  H  H45  1  0.71398000  0.67975000  0.46112000  1
  H  H46  1  0.63171000  0.63213000  0.46172000  1
  H  H47  1  0.92998000  0.66922000  0.50436000  1
  H  H48  1  0.25361000  0.44182000  0.35336000  1
  H  H49  1  0.17065000  0.44200000  0.30495000  1
  H  H50  1  0.28602000  0.53888000  0.32025000  1
  H  H51  1  0.36829000  0.53828000  0.36787000  1
  H  H52  1  0.07002000  0.49564000  0.33078000  1
  H  H53  1  0.25361000  0.64664000  0.08846000  1
  H  H54  1  0.17065000  0.69505000  0.13705000  1
  H  H55  1  0.28602000  0.67975000  0.21863000  1
  H  H56  1  0.36829000  0.63213000  0.17041000  1
  H  H57  1  0.07002000  0.66922000  0.16486000  1
  H  H58  1  0.25361000  0.91154000  0.55818000  1
  H  H59  1  0.17065000  0.86295000  0.55800000  1
  H  H60  1  0.28602000  0.78137000  0.46112000  1
  H  H61  1  0.36829000  0.82959000  0.46172000  1
  H  H62  1  0.07002000  0.83514000  0.50436000  1
  H  H63  1  0.25361000  0.55818000  0.64664000  1
  H  H64  1  0.17065000  0.55800000  0.69505000  1
  H  H65  1  0.28602000  0.46112000  0.67975000  1
  H  H66  1  0.36829000  0.46172000  0.63213000  1
  H  H67  1  0.07002000  0.50436000  0.66922000  1
  H  H68  1  0.25361000  0.35336000  0.91154000  1
  H  H69  1  0.17065000  0.30495000  0.86295000  1
  H  H70  1  0.28602000  0.32025000  0.78137000  1
  H  H71  1  0.36829000  0.36787000  0.82959000  1
  H  H72  1  0.07002000  0.33078000  0.83514000  1
  H  H73  1  0.25361000  0.08846000  0.44182000  1
  H  H74  1  0.17065000  0.13705000  0.44200000  1
  H  H75  1  0.28602000  0.21863000  0.53888000  1
  H  H76  1  0.36829000  0.17041000  0.53828000  1
  H  H77  1  0.07002000  0.16486000  0.49564000  1
  H  H78  1  0.25361000  0.91154000  0.35336000  1
  H  H79  1  0.17065000  0.86295000  0.30495000  1
  H  H80  1  0.28602000  0.78137000  0.32025000  1
  H  H81  1  0.36829000  0.82959000  0.36787000  1
  H  H82  1  0.07002000  0.83514000  0.33078000  1
  H  H83  1  0.93559000  0.92907000  0.43165000  1
  H  H84  1  0.02374000  0.91096000  0.37870000  1
  H  H85  1  0.88744000  0.97313000  0.34315000  1
  H  H86  1  0.79929000  0.99124000  0.39610000  1
  H  H87  1  0.25361000  0.44182000  0.08846000  1
  H  H88  1  0.17065000  0.44200000  0.13705000  1
  H  H89  1  0.28602000  0.53888000  0.21863000  1
  H  H90  1  0.36829000  0.53828000  0.17041000  1
  H  H91  1  0.07002000  0.49564000  0.16486000  1
  H  H92  1  0.93559000  0.50258000  0.07093000  1
  H  H93  1  0.02374000  0.46774000  0.08904000  1
  H  H94  1  0.88744000  0.37002000  0.02687000  1
  H  H95  1  0.79929000  0.40486000  0.00876000  1
  H  H96  1  0.25361000  0.64664000  0.55818000  1
  H  H97  1  0.17065000  0.69505000  0.55800000  1
  H  H98  1  0.28602000  0.67975000  0.46112000  1
  H  H99  1  0.36829000  0.63213000  0.46172000  1
  H  H100  1  0.07002000  0.66922000  0.50436000  1
  H  H101  1  0.93559000  0.56835000  0.49742000  1
  H  H102  1  0.02374000  0.62130000  0.53226000  1
  H  H103  1  0.88744000  0.65685000  0.62998000  1
  H  H104  1  0.79929000  0.60390000  0.59514000  1
  H  H105  1  0.25361000  0.08846000  0.64664000  1
  H  H106  1  0.17065000  0.13705000  0.69505000  1
  H  H107  1  0.28602000  0.21863000  0.67975000  1
  H  H108  1  0.36829000  0.17041000  0.63213000  1
  H  H109  1  0.07002000  0.16486000  0.66922000  1
  H  H110  1  0.93559000  0.07093000  0.56835000  1
  H  H111  1  0.02374000  0.08904000  0.62130000  1
  H  H112  1  0.88744000  0.02687000  0.65685000  1
  H  H113  1  0.79929000  0.00876000  0.60390000  1
  H  H114  1  0.25361000  0.55818000  0.91154000  1
  H  H115  1  0.17065000  0.55800000  0.86295000  1
  H  H116  1  0.28602000  0.46112000  0.78137000  1
  H  H117  1  0.36829000  0.46172000  0.82959000  1
  H  H118  1  0.07002000  0.50436000  0.83514000  1
  H  H119  1  0.93559000  0.49742000  0.92907000  1
  H  H120  1  0.02374000  0.53226000  0.91096000  1
  H  H121  1  0.88744000  0.62998000  0.97313000  1
  H  H122  1  0.79929000  0.59514000  0.99124000  1
  H  H123  1  0.25361000  0.35336000  0.44182000  1
  H  H124  1  0.17065000  0.30495000  0.44200000  1
  H  H125  1  0.28602000  0.32025000  0.53888000  1
  H  H126  1  0.36829000  0.36787000  0.53828000  1
  H  H127  1  0.07002000  0.33078000  0.49564000  1
  H  H128  1  0.93559000  0.43165000  0.50258000  1
  H  H129  1  0.02374000  0.37870000  0.46774000  1
  H  H130  1  0.88744000  0.34315000  0.37002000  1
  H  H131  1  0.79929000  0.39610000  0.40486000  1
  H  H132  1  0.74639000  0.55818000  0.64664000  1
  H  H133  1  0.82935000  0.55800000  0.69505000  1
  H  H134  1  0.71398000  0.46112000  0.67975000  1
  H  H135  1  0.63171000  0.46172000  0.63213000  1
  H  H136  1  0.92998000  0.50436000  0.66922000  1
  H  H137  1  0.06441000  0.49742000  0.56835000  1
  H  H138  1  0.97626000  0.53226000  0.62130000  1
  H  H139  1  0.11256000  0.62998000  0.65685000  1
  H  H140  1  0.20071000  0.59514000  0.60390000  1
  H  H141  1  0.74639000  0.35336000  0.91154000  1
  H  H142  1  0.82935000  0.30495000  0.86295000  1
  H  H143  1  0.71398000  0.32025000  0.78137000  1
  H  H144  1  0.63171000  0.36787000  0.82959000  1
  H  H145  1  0.92998000  0.33078000  0.83514000  1
  H  H146  1  0.06441000  0.43165000  0.92907000  1
  H  H147  1  0.97626000  0.37870000  0.91096000  1
  H  H148  1  0.11256000  0.34315000  0.97313000  1
  H  H149  1  0.20071000  0.39610000  0.99124000  1
  H  H150  1  0.74639000  0.08846000  0.44182000  1
  H  H151  1  0.82935000  0.13705000  0.44200000  1
  H  H152  1  0.71398000  0.21863000  0.53888000  1
  H  H153  1  0.63171000  0.17041000  0.53828000  1
  H  H154  1  0.92998000  0.16486000  0.49564000  1
  H  H155  1  0.06441000  0.07093000  0.50258000  1
  H  H156  1  0.97626000  0.08904000  0.46774000  1
  H  H157  1  0.11256000  0.02687000  0.37002000  1
  H  H158  1  0.20071000  0.00876000  0.40486000  1
  H  H159  1  0.74639000  0.44182000  0.35336000  1
  H  H160  1  0.82935000  0.44200000  0.30495000  1
  H  H161  1  0.71398000  0.53888000  0.32025000  1
  H  H162  1  0.63171000  0.53828000  0.36787000  1
  H  H163  1  0.92998000  0.49564000  0.33078000  1
  H  H164  1  0.06441000  0.50258000  0.43165000  1
  H  H165  1  0.97626000  0.46774000  0.37870000  1
  H  H166  1  0.11256000  0.37002000  0.34315000  1
  H  H167  1  0.20071000  0.40486000  0.39610000  1
  H  H168  1  0.74639000  0.64664000  0.08846000  1
  H  H169  1  0.82935000  0.69505000  0.13705000  1
  H  H170  1  0.71398000  0.67975000  0.21863000  1
  H  H171  1  0.63171000  0.63213000  0.17041000  1
  H  H172  1  0.92998000  0.66922000  0.16486000  1
  H  H173  1  0.06441000  0.56835000  0.07093000  1
  H  H174  1  0.97626000  0.62130000  0.08904000  1
  H  H175  1  0.11256000  0.65685000  0.02687000  1
  H  H176  1  0.20071000  0.60390000  0.00876000  1
  H  H177  1  0.74639000  0.91154000  0.55818000  1
  H  H178  1  0.82935000  0.86295000  0.55800000  1
  H  H179  1  0.71398000  0.78137000  0.46112000  1
  H  H180  1  0.63171000  0.82959000  0.46172000  1
  H  H181  1  0.92998000  0.83514000  0.50436000  1
  H  H182  1  0.06441000  0.92907000  0.49742000  1
  H  H183  1  0.97626000  0.91096000  0.53226000  1
  H  H184  1  0.11256000  0.97313000  0.62998000  1
  H  H185  1  0.20071000  0.99124000  0.59514000  1
  H  H186  1  0.73181000  0.24635000  0.75365000  1
  H  H187  1  0.73181000  0.50730000  0.75365000  1
  H  H188  1  0.73181000  0.24635000  0.49270000  1
  H  H189  1  0.73181000  0.75365000  0.24635000  1
  H  H190  1  0.73181000  0.49270000  0.24635000  1
  H  H191  1  0.73181000  0.75365000  0.50730000  1
  H  H192  1  0.26819000  0.49270000  0.24635000  1
  H  H193  1  0.26819000  0.75365000  0.24635000  1
  H  H194  1  0.26819000  0.75365000  0.50730000  1
  H  H195  1  0.26819000  0.50730000  0.75365000  1
  H  H196  1  0.26819000  0.24635000  0.75365000  1
  H  H197  1  0.26819000  0.24635000  0.49270000  1
  C  C198  1  0.63490000  0.09340000  0.60210000  1
  C  C199  1  0.68440000  0.12480000  0.63330000  1
  C  C200  1  0.74070000  0.11500000  0.65300000  1
  C  C201  1  0.78930000  0.14380000  0.68200000  1
  C  C202  1  0.77840000  0.18300000  0.69190000  1
  C  C203  1  0.72120000  0.19210000  0.67310000  1
  C  C204  1  0.67300000  0.16340000  0.64440000  1
  C  C205  1  0.82780000  0.21470000  0.72340000  1
  C  C206  1  0.91260000  0.21480000  0.72390000  1
  C  C207  1  0.95840000  0.18480000  0.69100000  1
  C  C208  1  0.63490000  0.50870000  0.90660000  1
  C  C209  1  0.68440000  0.50850000  0.87520000  1
  C  C210  1  0.74070000  0.53800000  0.88500000  1
  C  C211  1  0.78930000  0.53820000  0.85620000  1
  C  C212  1  0.77840000  0.50890000  0.81700000  1
  C  C213  1  0.72120000  0.48100000  0.80790000  1
  C  C214  1  0.67300000  0.48100000  0.83660000  1
  C  C215  1  0.82780000  0.50870000  0.78530000  1
  C  C216  1  0.91260000  0.50910000  0.78520000  1
  C  C217  1  0.95840000  0.50620000  0.81520000  1
  C  C218  1  0.63490000  0.39790000  0.49130000  1
  C  C219  1  0.68440000  0.36670000  0.49150000  1
  C  C220  1  0.74070000  0.34700000  0.46200000  1
  C  C221  1  0.78930000  0.31800000  0.46180000  1
  C  C222  1  0.77840000  0.30810000  0.49110000  1
  C  C223  1  0.72120000  0.32690000  0.51900000  1
  C  C224  1  0.67300000  0.35560000  0.51900000  1
  C  C225  1  0.82780000  0.27660000  0.49130000  1
  C  C226  1  0.91260000  0.27610000  0.49090000  1
  C  C227  1  0.95840000  0.30900000  0.49380000  1
  C  C228  1  0.63490000  0.90660000  0.39790000  1
  C  C229  1  0.68440000  0.87520000  0.36670000  1
  C  C230  1  0.74070000  0.88500000  0.34700000  1
  C  C231  1  0.78930000  0.85620000  0.31800000  1
  C  C232  1  0.77840000  0.81700000  0.30810000  1
  C  C233  1  0.72120000  0.80790000  0.32690000  1
  C  C234  1  0.67300000  0.83660000  0.35560000  1
  C  C235  1  0.82780000  0.78530000  0.27660000  1
  C  C236  1  0.91260000  0.78520000  0.27610000  1
  C  C237  1  0.95840000  0.81520000  0.30900000  1
  C  C238  1  0.63490000  0.49130000  0.09340000  1
  C  C239  1  0.68440000  0.49150000  0.12480000  1
  C  C240  1  0.74070000  0.46200000  0.11500000  1
  C  C241  1  0.78930000  0.46180000  0.14380000  1
  C  C242  1  0.77840000  0.49110000  0.18300000  1
  C  C243  1  0.72120000  0.51900000  0.19210000  1
  C  C244  1  0.67300000  0.51900000  0.16340000  1
  C  C245  1  0.82780000  0.49130000  0.21470000  1
  C  C246  1  0.91260000  0.49090000  0.21480000  1
  C  C247  1  0.95840000  0.49380000  0.18480000  1
  C  C248  1  0.63490000  0.60210000  0.50870000  1
  C  C249  1  0.68440000  0.63330000  0.50850000  1
  C  C250  1  0.74070000  0.65300000  0.53800000  1
  C  C251  1  0.78930000  0.68200000  0.53820000  1
  C  C252  1  0.77840000  0.69190000  0.50890000  1
  C  C253  1  0.72120000  0.67310000  0.48100000  1
  C  C254  1  0.67300000  0.64440000  0.48100000  1
  C  C255  1  0.82780000  0.72340000  0.50870000  1
  C  C256  1  0.91260000  0.72390000  0.50910000  1
  C  C257  1  0.95840000  0.69100000  0.50620000  1
  C  C258  1  0.36510000  0.49130000  0.39790000  1
  C  C259  1  0.31560000  0.49150000  0.36670000  1
  C  C260  1  0.25930000  0.46200000  0.34700000  1
  C  C261  1  0.21070000  0.46180000  0.31800000  1
  C  C262  1  0.22160000  0.49110000  0.30810000  1
  C  C263  1  0.27880000  0.51900000  0.32690000  1
  C  C264  1  0.32700000  0.51900000  0.35560000  1
  C  C265  1  0.17220000  0.49130000  0.27660000  1
  C  C266  1  0.08740000  0.49090000  0.27610000  1
  C  C267  1  0.04160000  0.49380000  0.30900000  1
  C  C268  1  0.36510000  0.60210000  0.09340000  1
  C  C269  1  0.31560000  0.63330000  0.12480000  1
  C  C270  1  0.25930000  0.65300000  0.11500000  1
  C  C271  1  0.21070000  0.68200000  0.14380000  1
  C  C272  1  0.22160000  0.69190000  0.18300000  1
  C  C273  1  0.27880000  0.67310000  0.19210000  1
  C  C274  1  0.32700000  0.64440000  0.16340000  1
  C  C275  1  0.17220000  0.72340000  0.21470000  1
  C  C276  1  0.08740000  0.72390000  0.21480000  1
  C  C277  1  0.04160000  0.69100000  0.18480000  1
  C  C278  1  0.36510000  0.90660000  0.50870000  1
  C  C279  1  0.31560000  0.87520000  0.50850000  1
  C  C280  1  0.25930000  0.88500000  0.53800000  1
  C  C281  1  0.21070000  0.85620000  0.53820000  1
  C  C282  1  0.22160000  0.81700000  0.50890000  1
  C  C283  1  0.27880000  0.80790000  0.48100000  1
  C  C284  1  0.32700000  0.83660000  0.48100000  1
  C  C285  1  0.17220000  0.78530000  0.50870000  1
  C  C286  1  0.08740000  0.78520000  0.50910000  1
  C  C287  1  0.04160000  0.81520000  0.50620000  1
  C  C288  1  0.36510000  0.50870000  0.60210000  1
  C  C289  1  0.31560000  0.50850000  0.63330000  1
  C  C290  1  0.25930000  0.53800000  0.65300000  1
  C  C291  1  0.21070000  0.53820000  0.68200000  1
  C  C292  1  0.22160000  0.50890000  0.69190000  1
  C  C293  1  0.27880000  0.48100000  0.67310000  1
  C  C294  1  0.32700000  0.48100000  0.64440000  1
  C  C295  1  0.17220000  0.50870000  0.72340000  1
  C  C296  1  0.08740000  0.50910000  0.72390000  1
  C  C297  1  0.04160000  0.50620000  0.69100000  1
  C  C298  1  0.36510000  0.39790000  0.90660000  1
  C  C299  1  0.31560000  0.36670000  0.87520000  1
  C  C300  1  0.25930000  0.34700000  0.88500000  1
  C  C301  1  0.21070000  0.31800000  0.85620000  1
  C  C302  1  0.22160000  0.30810000  0.81700000  1
  C  C303  1  0.27880000  0.32690000  0.80790000  1
  C  C304  1  0.32700000  0.35560000  0.83660000  1
  C  C305  1  0.17220000  0.27660000  0.78530000  1
  C  C306  1  0.08740000  0.27610000  0.78520000  1
  C  C307  1  0.04160000  0.30900000  0.81520000  1
  C  C308  1  0.36510000  0.09340000  0.49130000  1
  C  C309  1  0.31560000  0.12480000  0.49150000  1
  C  C310  1  0.25930000  0.11500000  0.46200000  1
  C  C311  1  0.21070000  0.14380000  0.46180000  1
  C  C312  1  0.22160000  0.18300000  0.49110000  1
  C  C313  1  0.27880000  0.19210000  0.51900000  1
  C  C314  1  0.32700000  0.16340000  0.51900000  1
  C  C315  1  0.17220000  0.21470000  0.49130000  1
  C  C316  1  0.08740000  0.21480000  0.49090000  1
  C  C317  1  0.04160000  0.18480000  0.49380000  1
  C  C318  1  0.36510000  0.90660000  0.39790000  1
  C  C319  1  0.31560000  0.87520000  0.36670000  1
  C  C320  1  0.25930000  0.88500000  0.34700000  1
  C  C321  1  0.21070000  0.85620000  0.31800000  1
  C  C322  1  0.22160000  0.81700000  0.30810000  1
  C  C323  1  0.27880000  0.80790000  0.32690000  1
  C  C324  1  0.32700000  0.83660000  0.35560000  1
  C  C325  1  0.17220000  0.78530000  0.27660000  1
  C  C326  1  0.08740000  0.78520000  0.27610000  1
  C  C327  1  0.04160000  0.81520000  0.30900000  1
  C  C328  1  0.80000000  0.97320000  0.45680000  1
  C  C329  1  0.85900000  0.96190000  0.41890000  1
  C  C330  1  0.92600000  0.93800000  0.41370000  1
  C  C331  1  0.97800000  0.92730000  0.38230000  1
  C  C332  1  0.96400000  0.94030000  0.35590000  1
  C  C333  1  0.89700000  0.96420000  0.36110000  1
  C  C334  1  0.84500000  0.97490000  0.39250000  1
  C  C335  1  0.36510000  0.49130000  0.09340000  1
  C  C336  1  0.31560000  0.49150000  0.12480000  1
  C  C337  1  0.25930000  0.46200000  0.11500000  1
  C  C338  1  0.21070000  0.46180000  0.14380000  1
  C  C339  1  0.22160000  0.49110000  0.18300000  1
  C  C340  1  0.27880000  0.51900000  0.19210000  1
  C  C341  1  0.32700000  0.51900000  0.16340000  1
  C  C342  1  0.17220000  0.49130000  0.21470000  1
  C  C343  1  0.08740000  0.49090000  0.21480000  1
  C  C344  1  0.04160000  0.49380000  0.18480000  1
  C  C345  1  0.80000000  0.48360000  0.02680000  1
  C  C346  1  0.85900000  0.45700000  0.03810000  1
  C  C347  1  0.92600000  0.47570000  0.06200000  1
  C  C348  1  0.97800000  0.45500000  0.07270000  1
  C  C349  1  0.96400000  0.41560000  0.05970000  1
  C  C350  1  0.89700000  0.39690000  0.03580000  1
  C  C351  1  0.84500000  0.41760000  0.02510000  1
  C  C352  1  0.36510000  0.60210000  0.50870000  1
  C  C353  1  0.31560000  0.63330000  0.50850000  1
  C  C354  1  0.25930000  0.65300000  0.53800000  1
  C  C355  1  0.21070000  0.68200000  0.53820000  1
  C  C356  1  0.22160000  0.69190000  0.50890000  1
  C  C357  1  0.27880000  0.67310000  0.48100000  1
  C  C358  1  0.32700000  0.64440000  0.48100000  1
  C  C359  1  0.17220000  0.72340000  0.50870000  1
  C  C360  1  0.08740000  0.72390000  0.50910000  1
  C  C361  1  0.04160000  0.69100000  0.50620000  1
  C  C362  1  0.80000000  0.54320000  0.51640000  1
  C  C363  1  0.85900000  0.58110000  0.54300000  1
  C  C364  1  0.92600000  0.58630000  0.52430000  1
  C  C365  1  0.97800000  0.61770000  0.54500000  1
  C  C366  1  0.96400000  0.64410000  0.58440000  1
  C  C367  1  0.89700000  0.63890000  0.60310000  1
  C  C368  1  0.84500000  0.60750000  0.58240000  1
  C  C369  1  0.36510000  0.09340000  0.60210000  1
  C  C370  1  0.31560000  0.12480000  0.63330000  1
  C  C371  1  0.25930000  0.11500000  0.65300000  1
  C  C372  1  0.21070000  0.14380000  0.68200000  1
  C  C373  1  0.22160000  0.18300000  0.69190000  1
  C  C374  1  0.27880000  0.19210000  0.67310000  1
  C  C375  1  0.32700000  0.16340000  0.64440000  1
  C  C376  1  0.17220000  0.21470000  0.72340000  1
  C  C377  1  0.08740000  0.21480000  0.72390000  1
  C  C378  1  0.04160000  0.18480000  0.69100000  1
  C  C379  1  0.80000000  0.02680000  0.54320000  1
  C  C380  1  0.85900000  0.03810000  0.58110000  1
  C  C381  1  0.92600000  0.06200000  0.58630000  1
  C  C382  1  0.97800000  0.07270000  0.61770000  1
  C  C383  1  0.96400000  0.05970000  0.64410000  1
  C  C384  1  0.89700000  0.03580000  0.63890000  1
  C  C385  1  0.84500000  0.02510000  0.60750000  1
  C  C386  1  0.36510000  0.50870000  0.90660000  1
  C  C387  1  0.31560000  0.50850000  0.87520000  1
  C  C388  1  0.25930000  0.53800000  0.88500000  1
  C  C389  1  0.21070000  0.53820000  0.85620000  1
  C  C390  1  0.22160000  0.50890000  0.81700000  1
  C  C391  1  0.27880000  0.48100000  0.80790000  1
  C  C392  1  0.32700000  0.48100000  0.83660000  1
  C  C393  1  0.17220000  0.50870000  0.78530000  1
  C  C394  1  0.08740000  0.50910000  0.78520000  1
  C  C395  1  0.04160000  0.50620000  0.81520000  1
  C  C396  1  0.80000000  0.51640000  0.97320000  1
  C  C397  1  0.85900000  0.54300000  0.96190000  1
  C  C398  1  0.92600000  0.52430000  0.93800000  1
  C  C399  1  0.97800000  0.54500000  0.92730000  1
  C  C400  1  0.96400000  0.58440000  0.94030000  1
  C  C401  1  0.89700000  0.60310000  0.96420000  1
  C  C402  1  0.84500000  0.58240000  0.97490000  1
  C  C403  1  0.36510000  0.39790000  0.49130000  1
  C  C404  1  0.31560000  0.36670000  0.49150000  1
  C  C405  1  0.25930000  0.34700000  0.46200000  1
  C  C406  1  0.21070000  0.31800000  0.46180000  1
  C  C407  1  0.22160000  0.30810000  0.49110000  1
  C  C408  1  0.27880000  0.32690000  0.51900000  1
  C  C409  1  0.32700000  0.35560000  0.51900000  1
  C  C410  1  0.17220000  0.27660000  0.49130000  1
  C  C411  1  0.08740000  0.27610000  0.49090000  1
  C  C412  1  0.04160000  0.30900000  0.49380000  1
  C  C413  1  0.80000000  0.45680000  0.48360000  1
  C  C414  1  0.85900000  0.41890000  0.45700000  1
  C  C415  1  0.92600000  0.41370000  0.47570000  1
  C  C416  1  0.97800000  0.38230000  0.45500000  1
  C  C417  1  0.96400000  0.35590000  0.41560000  1
  C  C418  1  0.89700000  0.36110000  0.39690000  1
  C  C419  1  0.84500000  0.39250000  0.41760000  1
  C  C420  1  0.63490000  0.50870000  0.60210000  1
  C  C421  1  0.68440000  0.50850000  0.63330000  1
  C  C422  1  0.74070000  0.53800000  0.65300000  1
  C  C423  1  0.78930000  0.53820000  0.68200000  1
  C  C424  1  0.77840000  0.50890000  0.69190000  1
  C  C425  1  0.72120000  0.48100000  0.67310000  1
  C  C426  1  0.67300000  0.48100000  0.64440000  1
  C  C427  1  0.82780000  0.50870000  0.72340000  1
  C  C428  1  0.91260000  0.50910000  0.72390000  1
  C  C429  1  0.95840000  0.50620000  0.69100000  1
  C  C430  1  0.20000000  0.51640000  0.54320000  1
  C  C431  1  0.14100000  0.54300000  0.58110000  1
  C  C432  1  0.07400000  0.52430000  0.58630000  1
  C  C433  1  0.02200000  0.54500000  0.61770000  1
  C  C434  1  0.03600000  0.58440000  0.64410000  1
  C  C435  1  0.10300000  0.60310000  0.63890000  1
  C  C436  1  0.15500000  0.58240000  0.60750000  1
  C  C437  1  0.63490000  0.39790000  0.90660000  1
  C  C438  1  0.68440000  0.36670000  0.87520000  1
  C  C439  1  0.74070000  0.34700000  0.88500000  1
  C  C440  1  0.78930000  0.31800000  0.85620000  1
  C  C441  1  0.77840000  0.30810000  0.81700000  1
  C  C442  1  0.72120000  0.32690000  0.80790000  1
  C  C443  1  0.67300000  0.35560000  0.83660000  1
  C  C444  1  0.82780000  0.27660000  0.78530000  1
  C  C445  1  0.91260000  0.27610000  0.78520000  1
  C  C446  1  0.95840000  0.30900000  0.81520000  1
  C  C447  1  0.20000000  0.45680000  0.97320000  1
  C  C448  1  0.14100000  0.41890000  0.96190000  1
  C  C449  1  0.07400000  0.41370000  0.93800000  1
  C  C450  1  0.02200000  0.38230000  0.92730000  1
  C  C451  1  0.03600000  0.35590000  0.94030000  1
  C  C452  1  0.10300000  0.36110000  0.96420000  1
  C  C453  1  0.15500000  0.39250000  0.97490000  1
  C  C454  1  0.63490000  0.09340000  0.49130000  1
  C  C455  1  0.68440000  0.12480000  0.49150000  1
  C  C456  1  0.74070000  0.11500000  0.46200000  1
  C  C457  1  0.78930000  0.14380000  0.46180000  1
  C  C458  1  0.77840000  0.18300000  0.49110000  1
  C  C459  1  0.72120000  0.19210000  0.51900000  1
  C  C460  1  0.67300000  0.16340000  0.51900000  1
  C  C461  1  0.82780000  0.21470000  0.49130000  1
  C  C462  1  0.91260000  0.21480000  0.49090000  1
  C  C463  1  0.95840000  0.18480000  0.49380000  1
  C  C464  1  0.20000000  0.02680000  0.48360000  1
  C  C465  1  0.14100000  0.03810000  0.45700000  1
  C  C466  1  0.07400000  0.06200000  0.47570000  1
  C  C467  1  0.02200000  0.07270000  0.45500000  1
  C  C468  1  0.03600000  0.05970000  0.41560000  1
  C  C469  1  0.10300000  0.03580000  0.39690000  1
  C  C470  1  0.15500000  0.02510000  0.41760000  1
  C  C471  1  0.63490000  0.49130000  0.39790000  1
  C  C472  1  0.68440000  0.49150000  0.36670000  1
  C  C473  1  0.74070000  0.46200000  0.34700000  1
  C  C474  1  0.78930000  0.46180000  0.31800000  1
  C  C475  1  0.77840000  0.49110000  0.30810000  1
  C  C476  1  0.72120000  0.51900000  0.32690000  1
  C  C477  1  0.67300000  0.51900000  0.35560000  1
  C  C478  1  0.82780000  0.49130000  0.27660000  1
  C  C479  1  0.91260000  0.49090000  0.27610000  1
  C  C480  1  0.95840000  0.49380000  0.30900000  1
  C  C481  1  0.20000000  0.48360000  0.45680000  1
  C  C482  1  0.14100000  0.45700000  0.41890000  1
  C  C483  1  0.07400000  0.47570000  0.41370000  1
  C  C484  1  0.02200000  0.45500000  0.38230000  1
  C  C485  1  0.03600000  0.41560000  0.35590000  1
  C  C486  1  0.10300000  0.39690000  0.36110000  1
  C  C487  1  0.15500000  0.41760000  0.39250000  1
  C  C488  1  0.63490000  0.60210000  0.09340000  1
  C  C489  1  0.68440000  0.63330000  0.12480000  1
  C  C490  1  0.74070000  0.65300000  0.11500000  1
  C  C491  1  0.78930000  0.68200000  0.14380000  1
  C  C492  1  0.77840000  0.69190000  0.18300000  1
  C  C493  1  0.72120000  0.67310000  0.19210000  1
  C  C494  1  0.67300000  0.64440000  0.16340000  1
  C  C495  1  0.82780000  0.72340000  0.21470000  1
  C  C496  1  0.91260000  0.72390000  0.21480000  1
  C  C497  1  0.95840000  0.69100000  0.18480000  1
  C  C498  1  0.20000000  0.54320000  0.02680000  1
  C  C499  1  0.14100000  0.58110000  0.03810000  1
  C  C500  1  0.07400000  0.58630000  0.06200000  1
  C  C501  1  0.02200000  0.61770000  0.07270000  1
  C  C502  1  0.03600000  0.64410000  0.05970000  1
  C  C503  1  0.10300000  0.63890000  0.03580000  1
  C  C504  1  0.15500000  0.60750000  0.02510000  1
  C  C505  1  0.63490000  0.90660000  0.50870000  1
  C  C506  1  0.68440000  0.87520000  0.50850000  1
  C  C507  1  0.74070000  0.88500000  0.53800000  1
  C  C508  1  0.78930000  0.85620000  0.53820000  1
  C  C509  1  0.77840000  0.81700000  0.50890000  1
  C  C510  1  0.72120000  0.80790000  0.48100000  1
  C  C511  1  0.67300000  0.83660000  0.48100000  1
  C  C512  1  0.82780000  0.78530000  0.50870000  1
  C  C513  1  0.91260000  0.78520000  0.50910000  1
  C  C514  1  0.95840000  0.81520000  0.50620000  1
  C  C515  1  0.20000000  0.97320000  0.51640000  1
  C  C516  1  0.14100000  0.96190000  0.54300000  1
  C  C517  1  0.07400000  0.93800000  0.52430000  1
  C  C518  1  0.02200000  0.92730000  0.54500000  1
  C  C519  1  0.03600000  0.94030000  0.58440000  1
  C  C520  1  0.10300000  0.96420000  0.60310000  1
  C  C521  1  0.15500000  0.97490000  0.58240000  1
  C  C522  1  0.78970000  0.24595000  0.75405000  1
  C  C523  1  0.95570000  0.24550000  0.75450000  1
  C  C524  1  0.78970000  0.50810000  0.75405000  1
  C  C525  1  0.95570000  0.50900000  0.75450000  1
  C  C526  1  0.78970000  0.24595000  0.49190000  1
  C  C527  1  0.95570000  0.24550000  0.49100000  1
  C  C528  1  0.78970000  0.75405000  0.24595000  1
  C  C529  1  0.95570000  0.75450000  0.24550000  1
  C  C530  1  0.78970000  0.49190000  0.24595000  1
  C  C531  1  0.95570000  0.49100000  0.24550000  1
  C  C532  1  0.78970000  0.75405000  0.50810000  1
  C  C533  1  0.95570000  0.75450000  0.50900000  1
  C  C534  1  0.21030000  0.49190000  0.24595000  1
  C  C535  1  0.04430000  0.49100000  0.24550000  1
  C  C536  1  0.21030000  0.75405000  0.24595000  1
  C  C537  1  0.04430000  0.75450000  0.24550000  1
  C  C538  1  0.21030000  0.75405000  0.50810000  1
  C  C539  1  0.04430000  0.75450000  0.50900000  1
  C  C540  1  0.21030000  0.50810000  0.75405000  1
  C  C541  1  0.04430000  0.50900000  0.75450000  1
  C  C542  1  0.21030000  0.24595000  0.75405000  1
  C  C543  1  0.04430000  0.24550000  0.75450000  1
  C  C544  1  0.21030000  0.24595000  0.49190000  1
  C  C545  1  0.04430000  0.24550000  0.49100000  1
  C  C546  1  0.50000000  0.00000000  0.60700000  1
  C  C547  1  0.50000000  0.60700000  0.00000000  1
  C  C548  1  0.50000000  0.39300000  0.39300000  1
  C  C549  1  0.50000000  0.00000000  0.39300000  1
  C  C550  1  0.50000000  0.39300000  0.00000000  1
  C  C551  1  0.50000000  0.60700000  0.60700000  1
  O  O552  1  0.58360000  0.10401000  0.58622000  1
  O  O553  1  0.65050000  0.05817000  0.59227000  1
  O  O554  1  0.20300000  0.05090000  0.53130000  1
  O  O555  1  0.58360000  0.48221000  0.89599000  1
  O  O556  1  0.65050000  0.53410000  0.94183000  1
  O  O557  1  0.20300000  0.48040000  0.94910000  1
  O  O558  1  0.58360000  0.41378000  0.51779000  1
  O  O559  1  0.65050000  0.40773000  0.46590000  1
  O  O560  1  0.20300000  0.46870000  0.51960000  1
  O  O561  1  0.58360000  0.89599000  0.41378000  1
  O  O562  1  0.65050000  0.94183000  0.40773000  1
  O  O563  1  0.20300000  0.94910000  0.46870000  1
  O  O564  1  0.58360000  0.51779000  0.10401000  1
  O  O565  1  0.65050000  0.46590000  0.05817000  1
  O  O566  1  0.20300000  0.51960000  0.05090000  1
  O  O567  1  0.58360000  0.58622000  0.48221000  1
  O  O568  1  0.65050000  0.59227000  0.53410000  1
  O  O569  1  0.20300000  0.53130000  0.48040000  1
  O  O570  1  0.41640000  0.51779000  0.41378000  1
  O  O571  1  0.34950000  0.46590000  0.40773000  1
  O  O572  1  0.79700000  0.51960000  0.46870000  1
  O  O573  1  0.41640000  0.58622000  0.10401000  1
  O  O574  1  0.34950000  0.59227000  0.05817000  1
  O  O575  1  0.79700000  0.53130000  0.05090000  1
  O  O576  1  0.41640000  0.89599000  0.48221000  1
  O  O577  1  0.34950000  0.94183000  0.53410000  1
  O  O578  1  0.79700000  0.94910000  0.48040000  1
  O  O579  1  0.41640000  0.48221000  0.58622000  1
  O  O580  1  0.34950000  0.53410000  0.59227000  1
  O  O581  1  0.79700000  0.48040000  0.53130000  1
  O  O582  1  0.41640000  0.41378000  0.89599000  1
  O  O583  1  0.34950000  0.40773000  0.94183000  1
  O  O584  1  0.79700000  0.46870000  0.94910000  1
  O  O585  1  0.41640000  0.10401000  0.51779000  1
  O  O586  1  0.34950000  0.05817000  0.46590000  1
  O  O587  1  0.79700000  0.05090000  0.51960000  1
  O  O588  1  0.41640000  0.89599000  0.41378000  1
  O  O589  1  0.34950000  0.94183000  0.40773000  1
  O  O590  1  0.41640000  0.51779000  0.10401000  1
  O  O591  1  0.34950000  0.46590000  0.05817000  1
  O  O592  1  0.41640000  0.58622000  0.48221000  1
  O  O593  1  0.34950000  0.59227000  0.53410000  1
  O  O594  1  0.41640000  0.10401000  0.58622000  1
  O  O595  1  0.34950000  0.05817000  0.59227000  1
  O  O596  1  0.41640000  0.48221000  0.89599000  1
  O  O597  1  0.34950000  0.53410000  0.94183000  1
  O  O598  1  0.41640000  0.41378000  0.51779000  1
  O  O599  1  0.34950000  0.40773000  0.46590000  1
  O  O600  1  0.58360000  0.48221000  0.58622000  1
  O  O601  1  0.65050000  0.53410000  0.59227000  1
  O  O602  1  0.58360000  0.41378000  0.89599000  1
  O  O603  1  0.65050000  0.40773000  0.94183000  1
  O  O604  1  0.58360000  0.10401000  0.51779000  1
  O  O605  1  0.65050000  0.05817000  0.46590000  1
  O  O606  1  0.58360000  0.51779000  0.41378000  1
  O  O607  1  0.65050000  0.46590000  0.40773000  1
  O  O608  1  0.58360000  0.58622000  0.10401000  1
  O  O609  1  0.65050000  0.59227000  0.05817000  1
  O  O610  1  0.58360000  0.89599000  0.48221000  1
  O  O611  1  0.65050000  0.94183000  0.53410000  1
  O  O612  1  0.50000000  0.03530000  0.56420000  1
  O  O613  1  0.50000000  0.52890000  0.96470000  1
  O  O614  1  0.50000000  0.43580000  0.47110000  1
  O  O615  1  0.50000000  0.96470000  0.43580000  1
  O  O616  1  0.50000000  0.47110000  0.03530000  1
  O  O617  1  0.50000000  0.56420000  0.52890000  1
  O  O618  1  0.50000000  0.47110000  0.43580000  1
  O  O619  1  0.50000000  0.56420000  0.03530000  1
  O  O620  1  0.50000000  0.96470000  0.52890000  1
  O  O621  1  0.50000000  0.52890000  0.56420000  1
  O  O622  1  0.50000000  0.43580000  0.96470000  1
  O  O623  1  0.50000000  0.03530000  0.47110000  1
  O  O624  1  0.39030000  0.96350000  0.48175000  1
  O  O625  1  0.39030000  0.51825000  0.03650000  1
  O  O626  1  0.39030000  0.51825000  0.48175000  1
  O  O627  1  0.39030000  0.03650000  0.51825000  1
  O  O628  1  0.39030000  0.48175000  0.96350000  1
  O  O629  1  0.39030000  0.48175000  0.51825000  1
  O  O630  1  0.60970000  0.48175000  0.51825000  1
  O  O631  1  0.60970000  0.48175000  0.96350000  1
  O  O632  1  0.60970000  0.03650000  0.51825000  1
  O  O633  1  0.60970000  0.51825000  0.48175000  1
  O  O634  1  0.60970000  0.51825000  0.03650000  1
  O  O635  1  0.60970000  0.96350000  0.48175000  1
  O  O636  1  0.25980000  0.00000000  0.53940000  1
  O  O637  1  0.41500000  0.00000000  0.60030000  1
  O  O638  1  0.25980000  0.53940000  0.00000000  1
  O  O639  1  0.41500000  0.60030000  0.00000000  1
  O  O640  1  0.25980000  0.46060000  0.46060000  1
  O  O641  1  0.41500000  0.39970000  0.39970000  1
  O  O642  1  0.25980000  0.00000000  0.46060000  1
  O  O643  1  0.41500000  0.00000000  0.39970000  1
  O  O644  1  0.25980000  0.46060000  0.00000000  1
  O  O645  1  0.41500000  0.39970000  1.00000000  1
  O  O646  1  0.25980000  0.53940000  0.53940000  1
  O  O647  1  0.41500000  0.60030000  0.60030000  1
  O  O648  1  0.74020000  0.46060000  0.46060000  1
  O  O649  1  0.58500000  0.39970000  0.39970000  1
  O  O650  1  0.74020000  0.53940000  0.00000000  1
  O  O651  1  0.58500000  0.60030000  0.00000000  1
  O  O652  1  0.74020000  0.00000000  0.53940000  1
  O  O653  1  0.58500000  0.00000000  0.60030000  1
  O  O654  1  0.74020000  0.53940000  0.53940000  1
  O  O655  1  0.58500000  0.60030000  0.60030000  1
  O  O656  1  0.74020000  0.46060000  0.00000000  1
  O  O657  1  0.58500000  0.39970000  1.00000000  1
  O  O658  1  0.74020000  0.00000000  0.46060000  1
  O  O659  1  0.58500000  0.00000000  0.39970000  1
  F  F660  1  0.01400000  0.93000000  0.32580000  1
  F  F661  1  0.01400000  0.39580000  0.07000000  1
  F  F662  1  0.01400000  0.67420000  0.60420000  1
  F  F663  1  0.01400000  0.07000000  0.67420000  1
  F  F664  1  0.01400000  0.60420000  0.93000000  1
  F  F665  1  0.01400000  0.32580000  0.39580000  1
  F  F666  1  0.98600000  0.60420000  0.67420000  1
  F  F667  1  0.98600000  0.32580000  0.93000000  1
  F  F668  1  0.98600000  0.07000000  0.39580000  1
  F  F669  1  0.98600000  0.39580000  0.32580000  1
  F  F670  1  0.98600000  0.67420000  0.07000000  1
  F  F671  1  0.98600000  0.93000000  0.60420000  1
