# generated using pymatgen
data_Zr3P6H120(C93O8)2
_symmetry_space_group_name_H-M   'P 1'
_cell_length_a   32.60893632
_cell_length_b   32.60893632
_cell_length_c   32.60893632
_cell_angle_alpha   60.00000000
_cell_angle_beta   60.00000000
_cell_angle_gamma   60.00000000
_symmetry_Int_Tables_number   1
_chemical_formula_structural   Zr3P6H120(C93O8)2
_chemical_formula_sum   'Zr6 P12 H240 C372 O32'
_cell_volume   24518.55662222
_cell_formula_units_Z   2
loop_
 _symmetry_equiv_pos_site_id
 _symmetry_equiv_pos_as_xyz
  1  'x, y, z'
loop_
 _atom_site_type_symbol
 _atom_site_label
 _atom_site_symmetry_multiplicity
 _atom_site_fract_x
 _atom_site_fract_y
 _atom_site_fract_z
 _atom_site_occupancy
  C  C0  1  0.13900000  0.99000000  0.88120000  1
  C  C1  1  0.18430000  0.99830000  0.84670000  1
  C  C2  1  0.21910000  0.95250000  0.86330000  1
  C  C3  1  0.19940000  0.03260000  0.79960000  1
  C  C4  1  0.26920000  0.94080000  0.83280000  1
  C  C5  1  0.24950000  0.02090000  0.76910000  1
  C  C6  1  0.28430000  0.97510000  0.78570000  1
  C  C7  1  0.33450000  0.97570000  0.72930000  1
  C  C8  1  0.38210000  0.97030000  0.70230000  1
  C  C9  1  0.43650000  0.96170000  0.66530000  1
  C  C10  1  0.43750000  0.00210000  0.62070000  1
  C  C11  1  0.47850000  0.91870000  0.66810000  1
  C  C12  1  0.48070000  0.99930000  0.57870000  1
  C  C13  1  0.52170000  0.91610000  0.62590000  1
  C  C14  1  0.47750000  0.87830000  0.71270000  1
  C  C15  1  0.52280000  0.95640000  0.58120000  1
  C  C16  1  0.56380000  0.87300000  0.62860000  1
  C  C17  1  0.51960000  0.83540000  0.71520000  1
  C  C18  1  0.43650000  0.11110000  0.50410000  1
  C  C19  1  0.53270000  0.05690000  0.53750000  1
  C  C20  1  0.56270000  0.83270000  0.67330000  1
  C  C21  1  0.39330000  0.11610000  0.50090000  1
  C  C22  1  0.43670000  0.14690000  0.51530000  1
  C  C23  1  0.57420000  0.06940000  0.49800000  1
  C  C24  1  0.51770000  0.06290000  0.58270000  1
  C  C25  1  0.34990000  0.15690000  0.50910000  1
  C  C26  1  0.39350000  0.18770000  0.52350000  1
  C  C27  1  0.60050000  0.08790000  0.50390000  1
  C  C28  1  0.54390000  0.08130000  0.58870000  1
  C  C29  1  0.35010000  0.19270000  0.52030000  1
  C  C30  1  0.58530000  0.09390000  0.54930000  1
  C  C31  1  0.98980000  0.88120000  0.99000000  1
  C  C32  1  0.97070000  0.84670000  0.99830000  1
  C  C33  1  0.96510000  0.86330000  0.95250000  1
  C  C34  1  0.96840000  0.79960000  0.03260000  1
  C  C35  1  0.95720000  0.83280000  0.94080000  1
  C  C36  1  0.96050000  0.76910000  0.02090000  1
  C  C37  1  0.95490000  0.78570000  0.97510000  1
  C  C38  1  0.96050000  0.72930000  0.97570000  1
  C  C39  1  0.94530000  0.70230000  0.97030000  1
  C  C40  1  0.93650000  0.66530000  0.96170000  1
  C  C41  1  0.93970000  0.62070000  0.00210000  1
  C  C42  1  0.93470000  0.66810000  0.91870000  1
  C  C43  1  0.94130000  0.57870000  0.99930000  1
  C  C44  1  0.93630000  0.62590000  0.91610000  1
  C  C45  1  0.93150000  0.71270000  0.87830000  1
  C  C46  1  0.93960000  0.58120000  0.95640000  1
  C  C47  1  0.93460000  0.62860000  0.87300000  1
  C  C48  1  0.92980000  0.71520000  0.83540000  1
  C  C49  1  0.94830000  0.50410000  0.11110000  1
  C  C50  1  0.87290000  0.53750000  0.05690000  1
  C  C51  1  0.93130000  0.67330000  0.83270000  1
  C  C52  1  0.98970000  0.50090000  0.11610000  1
  C  C53  1  0.90110000  0.51530000  0.14690000  1
  C  C54  1  0.85840000  0.49800000  0.06940000  1
  C  C55  1  0.83670000  0.58270000  0.06290000  1
  C  C56  1  0.98410000  0.50910000  0.15690000  1
  C  C57  1  0.89530000  0.52350000  0.18770000  1
  C  C58  1  0.80770000  0.50390000  0.08790000  1
  C  C59  1  0.78610000  0.58870000  0.08130000  1
  C  C60  1  0.93690000  0.52030000  0.19270000  1
  C  C61  1  0.77150000  0.54930000  0.09390000  1
  C  C62  1  0.88120000  0.98980000  0.13900000  1
  C  C63  1  0.84670000  0.97070000  0.18430000  1
  C  C64  1  0.86330000  0.96510000  0.21910000  1
  C  C65  1  0.79960000  0.96840000  0.19940000  1
  C  C66  1  0.83280000  0.95720000  0.26920000  1
  C  C67  1  0.76910000  0.96050000  0.24950000  1
  C  C68  1  0.78570000  0.95490000  0.28430000  1
  C  C69  1  0.72930000  0.96050000  0.33450000  1
  C  C70  1  0.70230000  0.94530000  0.38210000  1
  C  C71  1  0.66530000  0.93650000  0.43650000  1
  C  C72  1  0.62070000  0.93970000  0.43750000  1
  C  C73  1  0.66810000  0.93470000  0.47850000  1
  C  C74  1  0.57870000  0.94130000  0.48070000  1
  C  C75  1  0.62590000  0.93630000  0.52170000  1
  C  C76  1  0.71270000  0.93150000  0.47750000  1
  C  C77  1  0.58120000  0.93960000  0.52280000  1
  C  C78  1  0.62860000  0.93460000  0.56380000  1
  C  C79  1  0.71520000  0.92980000  0.51960000  1
  C  C80  1  0.50410000  0.94830000  0.43650000  1
  C  C81  1  0.53750000  0.87290000  0.53270000  1
  C  C82  1  0.67330000  0.93130000  0.56270000  1
  C  C83  1  0.50090000  0.98970000  0.39330000  1
  C  C84  1  0.51530000  0.90110000  0.43670000  1
  C  C85  1  0.49800000  0.85840000  0.57420000  1
  C  C86  1  0.58270000  0.83670000  0.51770000  1
  C  C87  1  0.50910000  0.98410000  0.34990000  1
  C  C88  1  0.52350000  0.89530000  0.39350000  1
  C  C89  1  0.50390000  0.80770000  0.60050000  1
  C  C90  1  0.58870000  0.78610000  0.54390000  1
  C  C91  1  0.52030000  0.93690000  0.35010000  1
  C  C92  1  0.54930000  0.77150000  0.58530000  1
  C  C93  1  0.99000000  0.13900000  0.98980000  1
  C  C94  1  0.99830000  0.18430000  0.97070000  1
  C  C95  1  0.95250000  0.21910000  0.96510000  1
  C  C96  1  0.03260000  0.19940000  0.96840000  1
  C  C97  1  0.94080000  0.26920000  0.95720000  1
  C  C98  1  0.02090000  0.24950000  0.96050000  1
  C  C99  1  0.97510000  0.28430000  0.95490000  1
  C  C100  1  0.97570000  0.33450000  0.96050000  1
  C  C101  1  0.97030000  0.38210000  0.94530000  1
  C  C102  1  0.96170000  0.43650000  0.93650000  1
  C  C103  1  0.00210000  0.43750000  0.93970000  1
  C  C104  1  0.91870000  0.47850000  0.93470000  1
  C  C105  1  0.99930000  0.48070000  0.94130000  1
  C  C106  1  0.91610000  0.52170000  0.93630000  1
  C  C107  1  0.87830000  0.47750000  0.93150000  1
  C  C108  1  0.95640000  0.52280000  0.93960000  1
  C  C109  1  0.87300000  0.56380000  0.93460000  1
  C  C110  1  0.83540000  0.51960000  0.92980000  1
  C  C111  1  0.11110000  0.43650000  0.94830000  1
  C  C112  1  0.05690000  0.53270000  0.87290000  1
  C  C113  1  0.83270000  0.56270000  0.93130000  1
  C  C114  1  0.11610000  0.39330000  0.98970000  1
  C  C115  1  0.14690000  0.43670000  0.90110000  1
  C  C116  1  0.06940000  0.57420000  0.85840000  1
  C  C117  1  0.06290000  0.51770000  0.83670000  1
  C  C118  1  0.15690000  0.34990000  0.98410000  1
  C  C119  1  0.18770000  0.39350000  0.89530000  1
  C  C120  1  0.08790000  0.60050000  0.80770000  1
  C  C121  1  0.08130000  0.54390000  0.78610000  1
  C  C122  1  0.19270000  0.35010000  0.93690000  1
  C  C123  1  0.09390000  0.58530000  0.77150000  1
  C  C124  1  0.99000000  0.88120000  0.13900000  1
  C  C125  1  0.99830000  0.84670000  0.18430000  1
  C  C126  1  0.95250000  0.86330000  0.21910000  1
  C  C127  1  0.03260000  0.79960000  0.19940000  1
  C  C128  1  0.94080000  0.83280000  0.26920000  1
  C  C129  1  0.02090000  0.76910000  0.24950000  1
  C  C130  1  0.97510000  0.78570000  0.28430000  1
  C  C131  1  0.97570000  0.72930000  0.33450000  1
  C  C132  1  0.97030000  0.70230000  0.38210000  1
  C  C133  1  0.96170000  0.66530000  0.43650000  1
  C  C134  1  0.00210000  0.62070000  0.43750000  1
  C  C135  1  0.91870000  0.66810000  0.47850000  1
  C  C136  1  0.99930000  0.57870000  0.48070000  1
  C  C137  1  0.91610000  0.62590000  0.52170000  1
  C  C138  1  0.87830000  0.71270000  0.47750000  1
  C  C139  1  0.95640000  0.58120000  0.52280000  1
  C  C140  1  0.87300000  0.62860000  0.56380000  1
  C  C141  1  0.83540000  0.71520000  0.51960000  1
  C  C142  1  0.11110000  0.50410000  0.43650000  1
  C  C143  1  0.05690000  0.53750000  0.53270000  1
  C  C144  1  0.83270000  0.67330000  0.56270000  1
  C  C145  1  0.11610000  0.50090000  0.39330000  1
  C  C146  1  0.14690000  0.51530000  0.43670000  1
  C  C147  1  0.06940000  0.49800000  0.57420000  1
  C  C148  1  0.06290000  0.58270000  0.51770000  1
  C  C149  1  0.15690000  0.50910000  0.34990000  1
  C  C150  1  0.18770000  0.52350000  0.39350000  1
  C  C151  1  0.08790000  0.50390000  0.60050000  1
  C  C152  1  0.08130000  0.58870000  0.54390000  1
  C  C153  1  0.19270000  0.52030000  0.35010000  1
  C  C154  1  0.09390000  0.54930000  0.58530000  1
  C  C155  1  0.88120000  0.99000000  0.98980000  1
  C  C156  1  0.84670000  0.99830000  0.97070000  1
  C  C157  1  0.86330000  0.95250000  0.96510000  1
  C  C158  1  0.79960000  0.03260000  0.96840000  1
  C  C159  1  0.83280000  0.94080000  0.95720000  1
  C  C160  1  0.76910000  0.02090000  0.96050000  1
  C  C161  1  0.78570000  0.97510000  0.95490000  1
  C  C162  1  0.72930000  0.97570000  0.96050000  1
  C  C163  1  0.70230000  0.97030000  0.94530000  1
  C  C164  1  0.66530000  0.96170000  0.93650000  1
  C  C165  1  0.62070000  0.00210000  0.93970000  1
  C  C166  1  0.66810000  0.91870000  0.93470000  1
  C  C167  1  0.57870000  0.99930000  0.94130000  1
  C  C168  1  0.62590000  0.91610000  0.93630000  1
  C  C169  1  0.71270000  0.87830000  0.93150000  1
  C  C170  1  0.58120000  0.95640000  0.93960000  1
  C  C171  1  0.62860000  0.87300000  0.93460000  1
  C  C172  1  0.71520000  0.83540000  0.92980000  1
  C  C173  1  0.50410000  0.11110000  0.94830000  1
  C  C174  1  0.53750000  0.05690000  0.87290000  1
  C  C175  1  0.67330000  0.83270000  0.93130000  1
  C  C176  1  0.50090000  0.11610000  0.98970000  1
  C  C177  1  0.51530000  0.14690000  0.90110000  1
  C  C178  1  0.49800000  0.06940000  0.85840000  1
  C  C179  1  0.58270000  0.06290000  0.83670000  1
  C  C180  1  0.50910000  0.15690000  0.98410000  1
  C  C181  1  0.52350000  0.18770000  0.89530000  1
  C  C182  1  0.50390000  0.08790000  0.80770000  1
  C  C183  1  0.58870000  0.08130000  0.78610000  1
  C  C184  1  0.52030000  0.19270000  0.93690000  1
  C  C185  1  0.54930000  0.09390000  0.77150000  1
  C  C186  1  0.98980000  0.13900000  0.88120000  1
  C  C187  1  0.97070000  0.18430000  0.84670000  1
  C  C188  1  0.96510000  0.21910000  0.86330000  1
  C  C189  1  0.96840000  0.19940000  0.79960000  1
  C  C190  1  0.95720000  0.26920000  0.83280000  1
  C  C191  1  0.96050000  0.24950000  0.76910000  1
  C  C192  1  0.95490000  0.28430000  0.78570000  1
  C  C193  1  0.96050000  0.33450000  0.72930000  1
  C  C194  1  0.94530000  0.38210000  0.70230000  1
  C  C195  1  0.93650000  0.43650000  0.66530000  1
  C  C196  1  0.93970000  0.43750000  0.62070000  1
  C  C197  1  0.93470000  0.47850000  0.66810000  1
  C  C198  1  0.94130000  0.48070000  0.57870000  1
  C  C199  1  0.93630000  0.52170000  0.62590000  1
  C  C200  1  0.93150000  0.47750000  0.71270000  1
  C  C201  1  0.93960000  0.52280000  0.58120000  1
  C  C202  1  0.93460000  0.56380000  0.62860000  1
  C  C203  1  0.92980000  0.51960000  0.71520000  1
  C  C204  1  0.94830000  0.43650000  0.50410000  1
  C  C205  1  0.87290000  0.53270000  0.53750000  1
  C  C206  1  0.93130000  0.56270000  0.67330000  1
  C  C207  1  0.98970000  0.39330000  0.50090000  1
  C  C208  1  0.90110000  0.43670000  0.51530000  1
  C  C209  1  0.85840000  0.57420000  0.49800000  1
  C  C210  1  0.83670000  0.51770000  0.58270000  1
  C  C211  1  0.98410000  0.34990000  0.50910000  1
  C  C212  1  0.89530000  0.39350000  0.52350000  1
  C  C213  1  0.80770000  0.60050000  0.50390000  1
  C  C214  1  0.78610000  0.54390000  0.58870000  1
  C  C215  1  0.93690000  0.35010000  0.52030000  1
  C  C216  1  0.77150000  0.58530000  0.54930000  1
  C  C217  1  0.13900000  0.98980000  0.99000000  1
  C  C218  1  0.18430000  0.97070000  0.99830000  1
  C  C219  1  0.21910000  0.96510000  0.95250000  1
  C  C220  1  0.19940000  0.96840000  0.03260000  1
  C  C221  1  0.26920000  0.95720000  0.94080000  1
  C  C222  1  0.24950000  0.96050000  0.02090000  1
  C  C223  1  0.28430000  0.95490000  0.97510000  1
  C  C224  1  0.33450000  0.96050000  0.97570000  1
  C  C225  1  0.38210000  0.94530000  0.97030000  1
  C  C226  1  0.43650000  0.93650000  0.96170000  1
  C  C227  1  0.43750000  0.93970000  0.00210000  1
  C  C228  1  0.47850000  0.93470000  0.91870000  1
  C  C229  1  0.48070000  0.94130000  0.99930000  1
  C  C230  1  0.52170000  0.93630000  0.91610000  1
  C  C231  1  0.47750000  0.93150000  0.87830000  1
  C  C232  1  0.52280000  0.93960000  0.95640000  1
  C  C233  1  0.56380000  0.93460000  0.87300000  1
  C  C234  1  0.51960000  0.92980000  0.83540000  1
  C  C235  1  0.43650000  0.94830000  0.11110000  1
  C  C236  1  0.53270000  0.87290000  0.05690000  1
  C  C237  1  0.56270000  0.93130000  0.83270000  1
  C  C238  1  0.39330000  0.98970000  0.11610000  1
  C  C239  1  0.43670000  0.90110000  0.14690000  1
  C  C240  1  0.57420000  0.85840000  0.06940000  1
  C  C241  1  0.51770000  0.83670000  0.06290000  1
  C  C242  1  0.34990000  0.98410000  0.15690000  1
  C  C243  1  0.39350000  0.89530000  0.18770000  1
  C  C244  1  0.60050000  0.80770000  0.08790000  1
  C  C245  1  0.54390000  0.78610000  0.08130000  1
  C  C246  1  0.35010000  0.93690000  0.19270000  1
  C  C247  1  0.58530000  0.77150000  0.09390000  1
  C  C248  1  0.88120000  0.13900000  0.99000000  1
  C  C249  1  0.84670000  0.18430000  0.99830000  1
  C  C250  1  0.86330000  0.21910000  0.95250000  1
  C  C251  1  0.79960000  0.19940000  0.03260000  1
  C  C252  1  0.83280000  0.26920000  0.94080000  1
  C  C253  1  0.76910000  0.24950000  0.02090000  1
  C  C254  1  0.78570000  0.28430000  0.97510000  1
  C  C255  1  0.72930000  0.33450000  0.97570000  1
  C  C256  1  0.70230000  0.38210000  0.97030000  1
  C  C257  1  0.66530000  0.43650000  0.96170000  1
  C  C258  1  0.62070000  0.43750000  0.00210000  1
  C  C259  1  0.66810000  0.47850000  0.91870000  1
  C  C260  1  0.57870000  0.48070000  0.99930000  1
  C  C261  1  0.62590000  0.52170000  0.91610000  1
  C  C262  1  0.71270000  0.47750000  0.87830000  1
  C  C263  1  0.58120000  0.52280000  0.95640000  1
  C  C264  1  0.62860000  0.56380000  0.87300000  1
  C  C265  1  0.71520000  0.51960000  0.83540000  1
  C  C266  1  0.50410000  0.43650000  0.11110000  1
  C  C267  1  0.53750000  0.53270000  0.05690000  1
  C  C268  1  0.67330000  0.56270000  0.83270000  1
  C  C269  1  0.50090000  0.39330000  0.11610000  1
  C  C270  1  0.51530000  0.43670000  0.14690000  1
  C  C271  1  0.49800000  0.57420000  0.06940000  1
  C  C272  1  0.58270000  0.51770000  0.06290000  1
  C  C273  1  0.50910000  0.34990000  0.15690000  1
  C  C274  1  0.52350000  0.39350000  0.18770000  1
  C  C275  1  0.50390000  0.60050000  0.08790000  1
  C  C276  1  0.58870000  0.54390000  0.08130000  1
  C  C277  1  0.52030000  0.35010000  0.19270000  1
  C  C278  1  0.54930000  0.58530000  0.09390000  1
  C  C279  1  0.99000000  0.98980000  0.88120000  1
  C  C280  1  0.99830000  0.97070000  0.84670000  1
  C  C281  1  0.95250000  0.96510000  0.86330000  1
  C  C282  1  0.03260000  0.96840000  0.79960000  1
  C  C283  1  0.94080000  0.95720000  0.83280000  1
  C  C284  1  0.02090000  0.96050000  0.76910000  1
  C  C285  1  0.97510000  0.95490000  0.78570000  1
  C  C286  1  0.97570000  0.96050000  0.72930000  1
  C  C287  1  0.97030000  0.94530000  0.70230000  1
  C  C288  1  0.96170000  0.93650000  0.66530000  1
  C  C289  1  0.00210000  0.93970000  0.62070000  1
  C  C290  1  0.91870000  0.93470000  0.66810000  1
  C  C291  1  0.99930000  0.94130000  0.57870000  1
  C  C292  1  0.91610000  0.93630000  0.62590000  1
  C  C293  1  0.87830000  0.93150000  0.71270000  1
  C  C294  1  0.95640000  0.93960000  0.58120000  1
  C  C295  1  0.87300000  0.93460000  0.62860000  1
  C  C296  1  0.83540000  0.92980000  0.71520000  1
  C  C297  1  0.11110000  0.94830000  0.50410000  1
  C  C298  1  0.05690000  0.87290000  0.53750000  1
  C  C299  1  0.83270000  0.93130000  0.67330000  1
  C  C300  1  0.11610000  0.98970000  0.50090000  1
  C  C301  1  0.14690000  0.90110000  0.51530000  1
  C  C302  1  0.06940000  0.85840000  0.49800000  1
  C  C303  1  0.06290000  0.83670000  0.58270000  1
  C  C304  1  0.15690000  0.98410000  0.50910000  1
  C  C305  1  0.18770000  0.89530000  0.52350000  1
  C  C306  1  0.08790000  0.80770000  0.50390000  1
  C  C307  1  0.08130000  0.78610000  0.58870000  1
  C  C308  1  0.19270000  0.93690000  0.52030000  1
  C  C309  1  0.09390000  0.77150000  0.54930000  1
  C  C310  1  0.13900000  0.88120000  0.98980000  1
  C  C311  1  0.18430000  0.84670000  0.97070000  1
  C  C312  1  0.21910000  0.86330000  0.96510000  1
  C  C313  1  0.19940000  0.79960000  0.96840000  1
  C  C314  1  0.26920000  0.83280000  0.95720000  1
  C  C315  1  0.24950000  0.76910000  0.96050000  1
  C  C316  1  0.28430000  0.78570000  0.95490000  1
  C  C317  1  0.33450000  0.72930000  0.96050000  1
  C  C318  1  0.38210000  0.70230000  0.94530000  1
  C  C319  1  0.43650000  0.66530000  0.93650000  1
  C  C320  1  0.43750000  0.62070000  0.93970000  1
  C  C321  1  0.47850000  0.66810000  0.93470000  1
  C  C322  1  0.48070000  0.57870000  0.94130000  1
  C  C323  1  0.52170000  0.62590000  0.93630000  1
  C  C324  1  0.47750000  0.71270000  0.93150000  1
  C  C325  1  0.52280000  0.58120000  0.93960000  1
  C  C326  1  0.56380000  0.62860000  0.93460000  1
  C  C327  1  0.51960000  0.71520000  0.92980000  1
  C  C328  1  0.43650000  0.50410000  0.94830000  1
  C  C329  1  0.53270000  0.53750000  0.87290000  1
  C  C330  1  0.56270000  0.67330000  0.93130000  1
  C  C331  1  0.39330000  0.50090000  0.98970000  1
  C  C332  1  0.43670000  0.51530000  0.90110000  1
  C  C333  1  0.57420000  0.49800000  0.85840000  1
  C  C334  1  0.51770000  0.58270000  0.83670000  1
  C  C335  1  0.34990000  0.50910000  0.98410000  1
  C  C336  1  0.39350000  0.52350000  0.89530000  1
  C  C337  1  0.60050000  0.50390000  0.80770000  1
  C  C338  1  0.54390000  0.58870000  0.78610000  1
  C  C339  1  0.35010000  0.52030000  0.93690000  1
  C  C340  1  0.58530000  0.54930000  0.77150000  1
  C  C341  1  0.98980000  0.99000000  0.13900000  1
  C  C342  1  0.97070000  0.99830000  0.18430000  1
  C  C343  1  0.96510000  0.95250000  0.21910000  1
  C  C344  1  0.96840000  0.03260000  0.19940000  1
  C  C345  1  0.95720000  0.94080000  0.26920000  1
  C  C346  1  0.96050000  0.02090000  0.24950000  1
  C  C347  1  0.95490000  0.97510000  0.28430000  1
  C  C348  1  0.96050000  0.97570000  0.33450000  1
  C  C349  1  0.94530000  0.97030000  0.38210000  1
  C  C350  1  0.93650000  0.96170000  0.43650000  1
  C  C351  1  0.93970000  0.00210000  0.43750000  1
  C  C352  1  0.93470000  0.91870000  0.47850000  1
  C  C353  1  0.94130000  0.99930000  0.48070000  1
  C  C354  1  0.93630000  0.91610000  0.52170000  1
  C  C355  1  0.93150000  0.87830000  0.47750000  1
  C  C356  1  0.93960000  0.95640000  0.52280000  1
  C  C357  1  0.93460000  0.87300000  0.56380000  1
  C  C358  1  0.92980000  0.83540000  0.51960000  1
  C  C359  1  0.94830000  0.11110000  0.43650000  1
  C  C360  1  0.87290000  0.05690000  0.53270000  1
  C  C361  1  0.93130000  0.83270000  0.56270000  1
  C  C362  1  0.98970000  0.11610000  0.39330000  1
  C  C363  1  0.90110000  0.14690000  0.43670000  1
  C  C364  1  0.85840000  0.06940000  0.57420000  1
  C  C365  1  0.83670000  0.06290000  0.51770000  1
  C  C366  1  0.98410000  0.15690000  0.34990000  1
  C  C367  1  0.89530000  0.18770000  0.39350000  1
  C  C368  1  0.80770000  0.08790000  0.60050000  1
  C  C369  1  0.78610000  0.08130000  0.54390000  1
  C  C370  1  0.93690000  0.19270000  0.35010000  1
  C  C371  1  0.77150000  0.09390000  0.58530000  1
  H  H372  1  0.20667000  0.92439000  0.90197000  1
  H  H373  1  0.17076000  0.07026000  0.78600000  1
  H  H374  1  0.29778000  0.90312000  0.84648000  1
  H  H375  1  0.26198000  0.04898000  0.73042000  1
  H  H376  1  0.40299000  0.03741000  0.61859000  1
  H  H377  1  0.44213000  0.88043000  0.74717000  1
  H  H378  1  0.55811000  0.95431000  0.54667000  1
  H  H379  1  0.59918000  0.87074000  0.59416000  1
  H  H380  1  0.51886000  0.80222000  0.75176000  1
  H  H381  1  0.59722000  0.79740000  0.67556000  1
  H  H382  1  0.39328000  0.08678000  0.49154000  1
  H  H383  1  0.47232000  0.14278000  0.51776000  1
  H  H384  1  0.58663000  0.06447000  0.46081000  1
  H  H385  1  0.48373000  0.05271000  0.61509000  1
  H  H386  1  0.31436000  0.16086000  0.50662000  1
  H  H387  1  0.39364000  0.21698000  0.53282000  1
  H  H388  1  0.63446000  0.09812000  0.47156000  1
  H  H389  1  0.53150000  0.08610000  0.62596000  1
  H  H390  1  0.31464000  0.22620000  0.52688000  1
  H  H391  1  0.60677000  0.10913000  0.55417000  1
  H  H392  1  0.96697000  0.90197000  0.92439000  1
  H  H393  1  0.97298000  0.78600000  0.07026000  1
  H  H394  1  0.95262000  0.84648000  0.90312000  1
  H  H395  1  0.95862000  0.73042000  0.04898000  1
  H  H396  1  0.94101000  0.61859000  0.03741000  1
  H  H397  1  0.93027000  0.74717000  0.88043000  1
  H  H398  1  0.94091000  0.54667000  0.95431000  1
  H  H399  1  0.93592000  0.59416000  0.87074000  1
  H  H400  1  0.92716000  0.75176000  0.80222000  1
  H  H401  1  0.92982000  0.67556000  0.79740000  1
  H  H402  1  0.02840000  0.49154000  0.08678000  1
  H  H403  1  0.86714000  0.51776000  0.14278000  1
  H  H404  1  0.88809000  0.46081000  0.06447000  1
  H  H405  1  0.84847000  0.61509000  0.05271000  1
  H  H406  1  0.01816000  0.50662000  0.16086000  1
  H  H407  1  0.85656000  0.53282000  0.21698000  1
  H  H408  1  0.79586000  0.47156000  0.09812000  1
  H  H409  1  0.75644000  0.62596000  0.08610000  1
  H  H410  1  0.93228000  0.52688000  0.22620000  1
  H  H411  1  0.72993000  0.55417000  0.10913000  1
  H  H412  1  0.90197000  0.96697000  0.20667000  1
  H  H413  1  0.78600000  0.97298000  0.17076000  1
  H  H414  1  0.84648000  0.95262000  0.29778000  1
  H  H415  1  0.73042000  0.95862000  0.26198000  1
  H  H416  1  0.61859000  0.94101000  0.40299000  1
  H  H417  1  0.74717000  0.93027000  0.44213000  1
  H  H418  1  0.54667000  0.94091000  0.55811000  1
  H  H419  1  0.59416000  0.93592000  0.59918000  1
  H  H420  1  0.75176000  0.92716000  0.51886000  1
  H  H421  1  0.67556000  0.92982000  0.59722000  1
  H  H422  1  0.49154000  0.02840000  0.39328000  1
  H  H423  1  0.51776000  0.86714000  0.47232000  1
  H  H424  1  0.46081000  0.88809000  0.58663000  1
  H  H425  1  0.61509000  0.84847000  0.48373000  1
  H  H426  1  0.50662000  0.01816000  0.31436000  1
  H  H427  1  0.53282000  0.85656000  0.39364000  1
  H  H428  1  0.47156000  0.79586000  0.63446000  1
  H  H429  1  0.62596000  0.75644000  0.53150000  1
  H  H430  1  0.52688000  0.93228000  0.31464000  1
  H  H431  1  0.55417000  0.72993000  0.60677000  1
  H  H432  1  0.92439000  0.20667000  0.96697000  1
  H  H433  1  0.07026000  0.17076000  0.97298000  1
  H  H434  1  0.90312000  0.29778000  0.95262000  1
  H  H435  1  0.04898000  0.26198000  0.95862000  1
  H  H436  1  0.03741000  0.40299000  0.94101000  1
  H  H437  1  0.88043000  0.44213000  0.93027000  1
  H  H438  1  0.95431000  0.55811000  0.94091000  1
  H  H439  1  0.87074000  0.59918000  0.93592000  1
  H  H440  1  0.80222000  0.51886000  0.92716000  1
  H  H441  1  0.79740000  0.59722000  0.92982000  1
  H  H442  1  0.08678000  0.39328000  0.02840000  1
  H  H443  1  0.14278000  0.47232000  0.86714000  1
  H  H444  1  0.06447000  0.58663000  0.88809000  1
  H  H445  1  0.05271000  0.48373000  0.84847000  1
  H  H446  1  0.16086000  0.31436000  0.01816000  1
  H  H447  1  0.21698000  0.39364000  0.85656000  1
  H  H448  1  0.09812000  0.63446000  0.79586000  1
  H  H449  1  0.08610000  0.53150000  0.75644000  1
  H  H450  1  0.22620000  0.31464000  0.93228000  1
  H  H451  1  0.10913000  0.60677000  0.72993000  1
  H  H452  1  0.92439000  0.90197000  0.20667000  1
  H  H453  1  0.07026000  0.78600000  0.17076000  1
  H  H454  1  0.90312000  0.84648000  0.29778000  1
  H  H455  1  0.04898000  0.73042000  0.26198000  1
  H  H456  1  0.03741000  0.61859000  0.40299000  1
  H  H457  1  0.88043000  0.74717000  0.44213000  1
  H  H458  1  0.95431000  0.54667000  0.55811000  1
  H  H459  1  0.87074000  0.59416000  0.59918000  1
  H  H460  1  0.80222000  0.75176000  0.51886000  1
  H  H461  1  0.79740000  0.67556000  0.59722000  1
  H  H462  1  0.08678000  0.49154000  0.39328000  1
  H  H463  1  0.14278000  0.51776000  0.47232000  1
  H  H464  1  0.06447000  0.46081000  0.58663000  1
  H  H465  1  0.05271000  0.61509000  0.48373000  1
  H  H466  1  0.16086000  0.50662000  0.31436000  1
  H  H467  1  0.21698000  0.53282000  0.39364000  1
  H  H468  1  0.09812000  0.47156000  0.63446000  1
  H  H469  1  0.08610000  0.62596000  0.53150000  1
  H  H470  1  0.22620000  0.52688000  0.31464000  1
  H  H471  1  0.10913000  0.55417000  0.60677000  1
  H  H472  1  0.90197000  0.92439000  0.96697000  1
  H  H473  1  0.78600000  0.07026000  0.97298000  1
  H  H474  1  0.84648000  0.90312000  0.95262000  1
  H  H475  1  0.73042000  0.04898000  0.95862000  1
  H  H476  1  0.61859000  0.03741000  0.94101000  1
  H  H477  1  0.74717000  0.88043000  0.93027000  1
  H  H478  1  0.54667000  0.95431000  0.94091000  1
  H  H479  1  0.59416000  0.87074000  0.93592000  1
  H  H480  1  0.75176000  0.80222000  0.92716000  1
  H  H481  1  0.67556000  0.79740000  0.92982000  1
  H  H482  1  0.49154000  0.08678000  0.02840000  1
  H  H483  1  0.51776000  0.14278000  0.86714000  1
  H  H484  1  0.46081000  0.06447000  0.88809000  1
  H  H485  1  0.61509000  0.05271000  0.84847000  1
  H  H486  1  0.50662000  0.16086000  0.01816000  1
  H  H487  1  0.53282000  0.21698000  0.85656000  1
  H  H488  1  0.47156000  0.09812000  0.79586000  1
  H  H489  1  0.62596000  0.08610000  0.75644000  1
  H  H490  1  0.52688000  0.22620000  0.93228000  1
  H  H491  1  0.55417000  0.10913000  0.72993000  1
  H  H492  1  0.96697000  0.20667000  0.90197000  1
  H  H493  1  0.97298000  0.17076000  0.78600000  1
  H  H494  1  0.95262000  0.29778000  0.84648000  1
  H  H495  1  0.95862000  0.26198000  0.73042000  1
  H  H496  1  0.94101000  0.40299000  0.61859000  1
  H  H497  1  0.93027000  0.44213000  0.74717000  1
  H  H498  1  0.94091000  0.55811000  0.54667000  1
  H  H499  1  0.93592000  0.59918000  0.59416000  1
  H  H500  1  0.92716000  0.51886000  0.75176000  1
  H  H501  1  0.92982000  0.59722000  0.67556000  1
  H  H502  1  0.02840000  0.39328000  0.49154000  1
  H  H503  1  0.86714000  0.47232000  0.51776000  1
  H  H504  1  0.88809000  0.58663000  0.46081000  1
  H  H505  1  0.84847000  0.48373000  0.61509000  1
  H  H506  1  0.01816000  0.31436000  0.50662000  1
  H  H507  1  0.85656000  0.39364000  0.53282000  1
  H  H508  1  0.79586000  0.63446000  0.47156000  1
  H  H509  1  0.75644000  0.53150000  0.62596000  1
  H  H510  1  0.93228000  0.31464000  0.52688000  1
  H  H511  1  0.72993000  0.60677000  0.55417000  1
  H  H512  1  0.20667000  0.96697000  0.92439000  1
  H  H513  1  0.17076000  0.97298000  0.07026000  1
  H  H514  1  0.29778000  0.95262000  0.90312000  1
  H  H515  1  0.26198000  0.95862000  0.04898000  1
  H  H516  1  0.40299000  0.94101000  0.03741000  1
  H  H517  1  0.44213000  0.93027000  0.88043000  1
  H  H518  1  0.55811000  0.94091000  0.95431000  1
  H  H519  1  0.59918000  0.93592000  0.87074000  1
  H  H520  1  0.51886000  0.92716000  0.80222000  1
  H  H521  1  0.59722000  0.92982000  0.79740000  1
  H  H522  1  0.39328000  0.02840000  0.08678000  1
  H  H523  1  0.47232000  0.86714000  0.14278000  1
  H  H524  1  0.58663000  0.88809000  0.06447000  1
  H  H525  1  0.48373000  0.84847000  0.05271000  1
  H  H526  1  0.31436000  0.01816000  0.16086000  1
  H  H527  1  0.39364000  0.85656000  0.21698000  1
  H  H528  1  0.63446000  0.79586000  0.09812000  1
  H  H529  1  0.53150000  0.75644000  0.08610000  1
  H  H530  1  0.31464000  0.93228000  0.22620000  1
  H  H531  1  0.60677000  0.72993000  0.10913000  1
  H  H532  1  0.90197000  0.20667000  0.92439000  1
  H  H533  1  0.78600000  0.17076000  0.07026000  1
  H  H534  1  0.84648000  0.29778000  0.90312000  1
  H  H535  1  0.73042000  0.26198000  0.04898000  1
  H  H536  1  0.61859000  0.40299000  0.03741000  1
  H  H537  1  0.74717000  0.44213000  0.88043000  1
  H  H538  1  0.54667000  0.55811000  0.95431000  1
  H  H539  1  0.59416000  0.59918000  0.87074000  1
  H  H540  1  0.75176000  0.51886000  0.80222000  1
  H  H541  1  0.67556000  0.59722000  0.79740000  1
  H  H542  1  0.49154000  0.39328000  0.08678000  1
  H  H543  1  0.51776000  0.47232000  0.14278000  1
  H  H544  1  0.46081000  0.58663000  0.06447000  1
  H  H545  1  0.61509000  0.48373000  0.05271000  1
  H  H546  1  0.50662000  0.31436000  0.16086000  1
  H  H547  1  0.53282000  0.39364000  0.21698000  1
  H  H548  1  0.47156000  0.63446000  0.09812000  1
  H  H549  1  0.62596000  0.53150000  0.08610000  1
  H  H550  1  0.52688000  0.31464000  0.22620000  1
  H  H551  1  0.55417000  0.60677000  0.10913000  1
  H  H552  1  0.92439000  0.96697000  0.90197000  1
  H  H553  1  0.07026000  0.97298000  0.78600000  1
  H  H554  1  0.90312000  0.95262000  0.84648000  1
  H  H555  1  0.04898000  0.95862000  0.73042000  1
  H  H556  1  0.03741000  0.94101000  0.61859000  1
  H  H557  1  0.88043000  0.93027000  0.74717000  1
  H  H558  1  0.95431000  0.94091000  0.54667000  1
  H  H559  1  0.87074000  0.93592000  0.59416000  1
  H  H560  1  0.80222000  0.92716000  0.75176000  1
  H  H561  1  0.79740000  0.92982000  0.67556000  1
  H  H562  1  0.08678000  0.02840000  0.49154000  1
  H  H563  1  0.14278000  0.86714000  0.51776000  1
  H  H564  1  0.06447000  0.88809000  0.46081000  1
  H  H565  1  0.05271000  0.84847000  0.61509000  1
  H  H566  1  0.16086000  0.01816000  0.50662000  1
  H  H567  1  0.21698000  0.85656000  0.53282000  1
  H  H568  1  0.09812000  0.79586000  0.47156000  1
  H  H569  1  0.08610000  0.75644000  0.62596000  1
  H  H570  1  0.22620000  0.93228000  0.52688000  1
  H  H571  1  0.10913000  0.72993000  0.55417000  1
  H  H572  1  0.20667000  0.90197000  0.96697000  1
  H  H573  1  0.17076000  0.78600000  0.97298000  1
  H  H574  1  0.29778000  0.84648000  0.95262000  1
  H  H575  1  0.26198000  0.73042000  0.95862000  1
  H  H576  1  0.40299000  0.61859000  0.94101000  1
  H  H577  1  0.44213000  0.74717000  0.93027000  1
  H  H578  1  0.55811000  0.54667000  0.94091000  1
  H  H579  1  0.59918000  0.59416000  0.93592000  1
  H  H580  1  0.51886000  0.75176000  0.92716000  1
  H  H581  1  0.59722000  0.67556000  0.92982000  1
  H  H582  1  0.39328000  0.49154000  0.02840000  1
  H  H583  1  0.47232000  0.51776000  0.86714000  1
  H  H584  1  0.58663000  0.46081000  0.88809000  1
  H  H585  1  0.48373000  0.61509000  0.84847000  1
  H  H586  1  0.31436000  0.50662000  0.01816000  1
  H  H587  1  0.39364000  0.53282000  0.85656000  1
  H  H588  1  0.63446000  0.47156000  0.79586000  1
  H  H589  1  0.53150000  0.62596000  0.75644000  1
  H  H590  1  0.31464000  0.52688000  0.93228000  1
  H  H591  1  0.60677000  0.55417000  0.72993000  1
  H  H592  1  0.96697000  0.92439000  0.20667000  1
  H  H593  1  0.97298000  0.07026000  0.17076000  1
  H  H594  1  0.95262000  0.90312000  0.29778000  1
  H  H595  1  0.95862000  0.04898000  0.26198000  1
  H  H596  1  0.94101000  0.03741000  0.40299000  1
  H  H597  1  0.93027000  0.88043000  0.44213000  1
  H  H598  1  0.94091000  0.95431000  0.55811000  1
  H  H599  1  0.93592000  0.87074000  0.59918000  1
  H  H600  1  0.92716000  0.80222000  0.51886000  1
  H  H601  1  0.92982000  0.79740000  0.59722000  1
  H  H602  1  0.02840000  0.08678000  0.39328000  1
  H  H603  1  0.86714000  0.14278000  0.47232000  1
  H  H604  1  0.88809000  0.06447000  0.58663000  1
  H  H605  1  0.84847000  0.05271000  0.48373000  1
  H  H606  1  0.01816000  0.16086000  0.31436000  1
  H  H607  1  0.85656000  0.21698000  0.39364000  1
  H  H608  1  0.79586000  0.09812000  0.63446000  1
  H  H609  1  0.75644000  0.08610000  0.53150000  1
  H  H610  1  0.93228000  0.22620000  0.31464000  1
  H  H611  1  0.72993000  0.10913000  0.60677000  1
  O  O612  1  0.12690000  0.95290000  0.88890000  1
  O  O613  1  0.03200000  0.95220000  0.88820000  1
  O  O614  1  0.03130000  0.88890000  0.95290000  1
  O  O615  1  0.12760000  0.88820000  0.95220000  1
  O  O616  1  0.88890000  0.03130000  0.12690000  1
  O  O617  1  0.88820000  0.12760000  0.03200000  1
  O  O618  1  0.95290000  0.12690000  0.03130000  1
  O  O619  1  0.95220000  0.03200000  0.12760000  1
  O  O620  1  0.95290000  0.88890000  0.12690000  1
  O  O621  1  0.95220000  0.88820000  0.03200000  1
  O  O622  1  0.88890000  0.95290000  0.03130000  1
  O  O623  1  0.88820000  0.95220000  0.12760000  1
  O  O624  1  0.03130000  0.12690000  0.88890000  1
  O  O625  1  0.12760000  0.03200000  0.88820000  1
  O  O626  1  0.12690000  0.03130000  0.95290000  1
  O  O627  1  0.03200000  0.12760000  0.95220000  1
  O  O628  1  0.88890000  0.12690000  0.95290000  1
  O  O629  1  0.88820000  0.03200000  0.95220000  1
  O  O630  1  0.95290000  0.03130000  0.88890000  1
  O  O631  1  0.95220000  0.12760000  0.88820000  1
  O  O632  1  0.12690000  0.88890000  0.03130000  1
  O  O633  1  0.03200000  0.88820000  0.12760000  1
  O  O634  1  0.03130000  0.95290000  0.12690000  1
  O  O635  1  0.12760000  0.95220000  0.03200000  1
  O  O636  1  0.02910000  0.02910000  0.91270000  1
  O  O637  1  0.02910000  0.91270000  0.02910000  1
  O  O638  1  0.91270000  0.02910000  0.02910000  1
  O  O639  1  0.02910000  0.02910000  0.02910000  1
  O  O640  1  0.07680000  0.97440000  0.97440000  1
  O  O641  1  0.97440000  0.97440000  0.97440000  1
  O  O642  1  0.97440000  0.97440000  0.07680000  1
  O  O643  1  0.97440000  0.07680000  0.97440000  1
  P  P644  1  0.49650000  0.04830000  0.51090000  1
  P  P645  1  0.94430000  0.51090000  0.04830000  1
  P  P646  1  0.51090000  0.94430000  0.49650000  1
  P  P647  1  0.04830000  0.49650000  0.94430000  1
  P  P648  1  0.04830000  0.51090000  0.49650000  1
  P  P649  1  0.51090000  0.04830000  0.94430000  1
  P  P650  1  0.94430000  0.49650000  0.51090000  1
  P  P651  1  0.49650000  0.94430000  0.04830000  1
  P  P652  1  0.51090000  0.49650000  0.04830000  1
  P  P653  1  0.04830000  0.94430000  0.51090000  1
  P  P654  1  0.49650000  0.51090000  0.94430000  1
  P  P655  1  0.94430000  0.04830000  0.49650000  1
  Zr  Zr656  1  0.05370000  0.94630000  0.94630000  1
  Zr  Zr657  1  0.94630000  0.05370000  0.05370000  1
  Zr  Zr658  1  0.94630000  0.94630000  0.05370000  1
  Zr  Zr659  1  0.05370000  0.05370000  0.94630000  1
  Zr  Zr660  1  0.94630000  0.05370000  0.94630000  1
  Zr  Zr661  1  0.05370000  0.94630000  0.05370000  1
