# generated using pymatgen
data_Zr3H6(C3O5)4
_symmetry_space_group_name_H-M   'P 1'
_cell_length_a   17.80900000
_cell_length_b   17.81200000
_cell_length_c   17.83100000
_cell_angle_alpha   90.03100000
_cell_angle_beta   89.99900000
_cell_angle_gamma   90.18200000
_symmetry_Int_Tables_number   1
_chemical_formula_structural   Zr3H6(C3O5)4
_chemical_formula_sum   'Zr24 H48 C96 O160'
_cell_volume   5656.21182883
_cell_formula_units_Z   8
loop_
 _symmetry_equiv_pos_site_id
 _symmetry_equiv_pos_as_xyz
  1  'x, y, z'
loop_
 _atom_site_type_symbol
 _atom_site_label
 _atom_site_symmetry_multiplicity
 _atom_site_fract_x
 _atom_site_fract_y
 _atom_site_fract_z
 _atom_site_occupancy
  Zr  Zr0  1  0.36223000  0.48901000  0.48960000  1
  Zr  Zr1  1  0.86232000  0.98882000  0.51041000  1
  Zr  Zr2  1  0.13761000  0.48889000  0.01054000  1
  Zr  Zr3  1  0.51093000  0.48944000  0.36230000  1
  Zr  Zr4  1  0.98939000  0.36220000  0.98894000  1
  Zr  Zr5  1  0.01060000  0.86228000  0.48896000  1
  Zr  Zr6  1  0.98902000  0.48953000  0.13765000  1
  Zr  Zr7  1  0.01095000  0.98952000  0.63764000  1
  Zr  Zr8  1  0.51050000  0.36226000  0.51123000  1
  Zr  Zr9  1  0.36233000  0.01092000  0.01048000  1
  Zr  Zr10  1  0.48893000  0.98954000  0.86231000  1
  Zr  Zr11  1  0.48933000  0.86237000  0.01100000  1
  Zr  Zr12  1  0.63777000  0.51099000  0.51040000  1
  Zr  Zr13  1  0.13768000  0.01118000  0.48959000  1
  Zr  Zr14  1  0.86239000  0.51111000  0.98946000  1
  Zr  Zr15  1  0.48907000  0.51056000  0.63770000  1
  Zr  Zr16  1  0.01061000  0.63780000  0.01106000  1
  Zr  Zr17  1  0.98940000  0.13772000  0.51104000  1
  Zr  Zr18  1  0.01098000  0.51047000  0.86235000  1
  Zr  Zr19  1  0.98905000  0.01048000  0.36236000  1
  Zr  Zr20  1  0.48950000  0.63774000  0.48877000  1
  Zr  Zr21  1  0.63767000  0.98908000  0.98952000  1
  Zr  Zr22  1  0.51107000  0.01046000  0.13769000  1
  Zr  Zr23  1  0.51067000  0.13763000  0.98900000  1
  H  H24  1  0.00060000  0.19330000  0.80480000  1
  H  H25  1  0.50380000  0.30840000  0.80460000  1
  H  H26  1  0.30740000  0.30360000  0.00130000  1
  H  H27  1  0.49880000  0.19400000  0.69570000  1
  H  H28  1  0.99930000  0.30920000  0.69410000  1
  H  H29  1  0.69360000  0.50220000  0.19160000  1
  H  H30  1  0.80650000  0.98810000  0.80260000  1
  H  H31  1  0.69460000  0.19300000  0.52140000  1
  H  H32  1  0.19200000  0.19240000  0.00210000  1
  H  H33  1  0.80530000  0.00350000  0.19140000  1
  H  H34  1  0.80450000  0.30550000  0.51200000  1
  H  H35  1  0.80660000  0.49970000  0.30900000  1
  H  H36  1  0.69340000  0.98520000  0.69610000  1
  H  H37  1  0.69500000  0.99870000  0.30720000  1
  H  H38  1  0.19270000  0.30490000  0.49840000  1
  H  H39  1  0.30590000  0.19670000  0.49690000  1
  H  H40  1  0.19500000  0.47990000  0.30460000  1
  H  H41  1  0.30840000  0.48170000  0.19580000  1
  H  H42  1  0.51650000  0.30400000  0.19420000  1
  H  H43  1  0.51270000  0.19570000  0.30620000  1
  H  H44  1  0.98930000  0.30370000  0.30840000  1
  H  H45  1  0.97880000  0.19620000  0.19190000  1
  H  H46  1  0.30620000  0.69550000  0.02290000  1
  H  H47  1  0.19410000  0.80430000  0.00750000  1
  H  H48  1  0.99940000  0.80670000  0.19520000  1
  H  H49  1  0.49620000  0.69160000  0.19540000  1
  H  H50  1  0.69260000  0.69640000  0.99870000  1
  H  H51  1  0.50120000  0.80600000  0.30430000  1
  H  H52  1  0.00070000  0.69080000  0.30590000  1
  H  H53  1  0.30640000  0.49780000  0.80840000  1
  H  H54  1  0.19350000  0.01190000  0.19740000  1
  H  H55  1  0.30540000  0.80700000  0.47860000  1
  H  H56  1  0.80800000  0.80760000  0.99790000  1
  H  H57  1  0.19470000  0.99650000  0.80860000  1
  H  H58  1  0.19550000  0.69450000  0.48800000  1
  H  H59  1  0.19340000  0.50030000  0.69100000  1
  H  H60  1  0.30660000  0.01480000  0.30390000  1
  H  H61  1  0.30500000  0.00130000  0.69280000  1
  H  H62  1  0.80730000  0.69510000  0.50160000  1
  H  H63  1  0.69410000  0.80330000  0.50310000  1
  H  H64  1  0.80500000  0.52010000  0.69540000  1
  H  H65  1  0.69160000  0.51830000  0.80420000  1
  H  H66  1  0.48350000  0.69600000  0.80580000  1
  H  H67  1  0.48730000  0.80430000  0.69380000  1
  H  H68  1  0.01070000  0.69630000  0.69160000  1
  H  H69  1  0.02120000  0.80380000  0.80810000  1
  H  H70  1  0.69380000  0.30450000  0.97710000  1
  H  H71  1  0.80590000  0.19570000  0.99250000  1
  C  C72  1  0.00200000  0.21200000  0.75500000  1
  C  C73  1  0.49600000  0.33830000  0.69080000  1
  C  C74  1  0.50000000  0.28820000  0.75550000  1
  C  C75  1  0.00500000  0.34100000  0.80800000  1
  C  C76  1  0.15890000  0.31000000  0.99800000  1
  C  C77  1  0.34000000  0.19000000  0.99500000  1
  C  C78  1  0.28810000  0.25400000  0.99900000  1
  C  C79  1  0.49800000  0.21310000  0.74550000  1
  C  C80  1  0.00300000  0.15800000  0.69100000  1
  C  C81  1  0.80920000  0.50400000  0.15980000  1
  C  C82  1  0.00200000  0.29000000  0.74400000  1
  C  C83  1  0.74330000  0.50300000  0.21090000  1
  C  C84  1  0.78700000  0.98500000  0.75330000  1
  C  C85  1  0.74440000  0.21200000  0.51900000  1
  C  C86  1  0.81040000  0.15800000  0.52000000  1
  C  C87  1  0.21180000  0.24200000  0.00000000  1
  C  C88  1  0.75570000  0.00000000  0.21080000  1
  C  C89  1  0.69000000  0.99700000  0.15840000  1
  C  C90  1  0.68790000  0.33900000  0.51700000  1
  C  C91  1  0.84000000  0.98000000  0.68920000  1
  C  C92  1  0.75500000  0.28600000  0.51500000  1
  C  C93  1  0.75700000  0.50100000  0.28970000  1
  C  C94  1  0.65900000  0.98200000  0.81070000  1
  C  C95  1  0.69200000  0.50300000  0.34010000  1
  C  C96  1  0.71300000  0.98400000  0.74550000  1
  C  C97  1  0.81200000  0.99600000  0.34200000  1
  C  C98  1  0.74460000  0.99800000  0.28760000  1
  C  C99  1  0.49600000  0.15960000  0.80800000  1
  C  C100  1  0.33970000  0.30900000  0.50600000  1
  C  C101  1  0.21240000  0.25540000  0.49990000  1
  C  C102  1  0.28600000  0.24600000  0.50000000  1
  C  C103  1  0.16000000  0.19100000  0.50200000  1
  C  C104  1  0.15800000  0.48200000  0.19030000  1
  C  C105  1  0.34000000  0.48400000  0.31000000  1
  C  C106  1  0.21400000  0.48100000  0.25500000  1
  C  C107  1  0.28800000  0.48200000  0.24500000  1
  C  C108  1  0.51700000  0.25400000  0.21400000  1
  C  C109  1  0.51800000  0.31130000  0.33900000  1
  C  C110  1  0.51500000  0.24500000  0.28600000  1
  C  C111  1  0.52000000  0.19000000  0.15900000  1
  C  C112  1  0.98500000  0.25500000  0.28800000  1
  C  C113  1  0.98200000  0.18970000  0.33900000  1
  C  C114  1  0.98300000  0.31100000  0.16120000  1
  C  C115  1  0.98200000  0.24500000  0.21200000  1
  C  C116  1  0.25600000  0.71400000  0.01800000  1
  C  C117  1  0.18850000  0.65930000  0.01500000  1
  C  C118  1  0.24300000  0.78500000  0.01400000  1
  C  C119  1  0.31130000  0.83700000  0.02100000  1
  C  C120  1  0.99800000  0.78800000  0.24500000  1
  C  C121  1  0.50400000  0.66170000  0.30920000  1
  C  C122  1  0.50000000  0.71180000  0.24450000  1
  C  C123  1  0.99500000  0.65900000  0.19200000  1
  C  C124  1  0.84110000  0.69000000  0.00200000  1
  C  C125  1  0.66000000  0.81000000  0.00500000  1
  C  C126  1  0.71190000  0.74600000  0.00100000  1
  C  C127  1  0.50200000  0.78690000  0.25450000  1
  C  C128  1  0.99700000  0.84200000  0.30900000  1
  C  C129  1  0.19080000  0.49600000  0.84020000  1
  C  C130  1  0.99800000  0.71000000  0.25600000  1
  C  C131  1  0.25670000  0.49700000  0.78910000  1
  C  C132  1  0.21300000  0.01500000  0.24670000  1
  C  C133  1  0.25560000  0.78800000  0.48100000  1
  C  C134  1  0.18960000  0.84200000  0.48000000  1
  C  C135  1  0.78820000  0.75800000  0.00000000  1
  C  C136  1  0.24430000  0.00000000  0.78920000  1
  C  C137  1  0.31000000  0.00300000  0.84160000  1
  C  C138  1  0.31210000  0.66100000  0.48300000  1
  C  C139  1  0.16000000  0.02000000  0.31080000  1
  C  C140  1  0.24500000  0.71400000  0.48500000  1
  C  C141  1  0.24300000  0.49900000  0.71030000  1
  C  C142  1  0.34100000  0.01800000  0.18930000  1
  C  C143  1  0.30800000  0.49700000  0.65990000  1
  C  C144  1  0.28700000  0.01600000  0.25450000  1
  C  C145  1  0.18800000  0.00400000  0.65800000  1
  C  C146  1  0.25540000  0.00200000  0.71240000  1
  C  C147  1  0.50400000  0.84040000  0.19200000  1
  C  C148  1  0.66030000  0.69100000  0.49400000  1
  C  C149  1  0.78760000  0.74460000  0.50010000  1
  C  C150  1  0.71400000  0.75400000  0.50000000  1
  C  C151  1  0.84000000  0.80900000  0.49800000  1
  C  C152  1  0.84200000  0.51800000  0.80970000  1
  C  C153  1  0.66000000  0.51600000  0.69000000  1
  C  C154  1  0.78600000  0.51900000  0.74500000  1
  C  C155  1  0.71200000  0.51800000  0.75500000  1
  C  C156  1  0.48300000  0.74600000  0.78600000  1
  C  C157  1  0.48200000  0.68870000  0.66100000  1
  C  C158  1  0.48500000  0.75500000  0.71400000  1
  C  C159  1  0.48000000  0.81000000  0.84100000  1
  C  C160  1  0.01500000  0.74500000  0.71200000  1
  C  C161  1  0.01800000  0.81030000  0.66100000  1
  C  C162  1  0.01700000  0.68900000  0.83880000  1
  C  C163  1  0.01800000  0.75500000  0.78800000  1
  C  C164  1  0.74400000  0.28600000  0.98200000  1
  C  C165  1  0.81150000  0.34070000  0.98500000  1
  C  C166  1  0.75700000  0.21500000  0.98600000  1
  C  C167  1  0.68870000  0.16300000  0.97900000  1
  O  O168  1  0.87440000  0.19170000  0.51960000  1
  O  O169  1  0.18890000  0.37600000  0.00830000  1
  O  O170  1  0.94040000  0.04920000  0.56570000  1
  O  O171  1  0.41700000  0.42100000  0.58000000  1
  O  O172  1  0.62310000  0.49130000  0.31030000  1
  O  O173  1  0.05060000  0.43150000  0.06020000  1
  O  O174  1  0.07850000  0.56590000  0.08910000  1
  O  O175  1  0.70850000  0.50730000  0.41090000  1
  O  O176  1  0.58920000  0.42240000  0.43490000  1
  O  O177  1  0.94760000  0.93300000  0.55870000  1
  O  O178  1  0.45080000  0.43360000  0.43990000  1
  O  O179  1  0.80850000  0.97870000  0.62350000  1
  O  O180  1  0.90960000  0.42180000  0.06550000  1
  O  O181  1  0.31000000  0.12430000  0.00830000  1
  O  O182  1  0.50970000  0.30890000  0.62400000  1
  O  O183  1  0.49090000  0.40970000  0.70890000  1
  O  O184  1  0.50770000  0.18980000  0.87570000  1
  O  O185  1  0.99150000  0.31120000  0.87530000  1
  O  O186  1  0.00720000  0.09050000  0.70880000  1
  O  O187  1  0.70960000  0.40900000  0.51990000  1
  O  O188  1  0.79160000  0.99060000  0.40900000  1
  O  O189  1  0.62310000  0.00780000  0.18910000  1
  O  O190  1  0.87710000  0.00860000  0.31030000  1
  O  O191  1  0.69140000  0.98080000  0.87530000  1
  O  O192  1  0.59120000  0.98170000  0.78950000  1
  O  O193  1  0.49030000  0.08970000  0.79090000  1
  O  O194  1  0.92000000  0.92100000  0.41800000  1
  O  O195  1  0.70970000  0.99270000  0.09180000  1
  O  O196  1  0.40980000  0.20880000  0.99210000  1
  O  O197  1  0.99310000  0.18980000  0.62400000  1
  O  O198  1  0.09020000  0.29070000  0.99150000  1
  O  O199  1  0.62270000  0.30770000  0.52000000  1
  O  O200  1  0.00900000  0.41130000  0.79030000  1
  O  O201  1  0.90910000  0.98090000  0.71050000  1
  O  O202  1  0.87800000  0.49280000  0.19000000  1
  O  O203  1  0.79030000  0.09180000  0.51880000  1
  O  O204  1  0.44060000  0.54930000  0.43340000  1
  O  O205  1  0.08000000  0.41900000  0.91800000  1
  O  O206  1  0.79110000  0.50820000  0.08840000  1
  O  O207  1  0.06540000  0.94060000  0.54990000  1
  O  O208  1  0.56100000  0.93800000  0.06000000  1
  O  O209  1  0.55040000  0.93330000  0.93930000  1
  O  O210  1  0.40900000  0.92210000  0.93420000  1
  O  O211  1  0.44300000  0.94950000  0.06620000  1
  O  O212  1  0.19020000  0.12340000  0.49000000  1
  O  O213  1  0.31090000  0.37610000  0.49360000  1
  O  O214  1  0.40960000  0.29060000  0.50910000  1
  O  O215  1  0.09050000  0.21080000  0.50840000  1
  O  O216  1  0.30880000  0.47950000  0.37770000  1
  O  O217  1  0.19270000  0.48010000  0.12420000  1
  O  O218  1  0.40970000  0.48120000  0.28880000  1
  O  O219  1  0.08990000  0.48110000  0.21010000  1
  O  O220  1  0.52100000  0.12170000  0.19300000  1
  O  O221  1  0.52020000  0.37680000  0.30980000  1
  O  O222  1  0.51900000  0.21020000  0.09220000  1
  O  O223  1  0.51830000  0.28860000  0.40820000  1
  O  O224  1  0.97950000  0.37630000  0.19260000  1
  O  O225  1  0.97940000  0.28930000  0.09120000  1
  O  O226  1  0.98340000  0.21090000  0.40870000  1
  O  O227  1  0.98070000  0.12290000  0.30860000  1
  O  O228  1  0.21110000  0.58940000  0.01870000  1
  O  O229  1  0.28890000  0.90980000  0.01810000  1
  O  O230  1  0.12290000  0.69000000  0.01870000  1
  O  O231  1  0.37590000  0.80840000  0.02080000  1
  O  O232  1  0.09050000  0.92180000  0.56560000  1
  O  O233  1  0.44000000  0.44100000  0.55900000  1
  O  O234  1  0.42110000  0.56680000  0.40870000  1
  O  O235  1  0.56360000  0.44110000  0.45280000  1
  O  O236  1  0.43400000  0.41000000  0.42040000  1
  O  O237  1  0.06100000  0.43900000  0.94000000  1
  O  O238  1  0.93380000  0.43980000  0.04980000  1
  O  O239  1  0.05860000  0.54610000  0.06730000  1
  O  O240  1  0.06900000  0.41000000  0.07700000  1
  O  O241  1  0.43310000  0.94140000  0.95120000  1
  O  O242  1  0.42170000  0.93200000  0.09000000  1
  O  O243  1  0.58000000  0.92100000  0.08100000  1
  O  O244  1  0.56690000  0.90900000  0.92200000  1
  O  O245  1  0.94000000  0.93900000  0.44200000  1
  O  O246  1  0.93510000  0.90800000  0.57710000  1
  O  O247  1  0.92160000  0.06580000  0.58840000  1
  O  O248  1  0.12560000  0.80830000  0.48040000  1
  O  O249  1  0.81110000  0.62400000  0.99170000  1
  O  O250  1  0.05960000  0.95080000  0.43430000  1
  O  O251  1  0.58300000  0.57900000  0.42000000  1
  O  O252  1  0.37690000  0.50870000  0.68970000  1
  O  O253  1  0.94940000  0.56850000  0.93980000  1
  O  O254  1  0.92150000  0.43410000  0.91090000  1
  O  O255  1  0.29150000  0.49270000  0.58910000  1
  O  O256  1  0.41080000  0.57760000  0.56510000  1
  O  O257  1  0.05240000  0.06700000  0.44130000  1
  O  O258  1  0.54920000  0.56640000  0.56010000  1
  O  O259  1  0.19150000  0.02130000  0.37650000  1
  O  O260  1  0.09040000  0.57820000  0.93450000  1
  O  O261  1  0.69000000  0.87570000  0.99170000  1
  O  O262  1  0.49030000  0.69110000  0.37600000  1
  O  O263  1  0.50910000  0.59030000  0.29110000  1
  O  O264  1  0.49230000  0.81020000  0.12430000  1
  O  O265  1  0.00850000  0.68880000  0.12470000  1
  O  O266  1  0.99280000  0.90950000  0.29120000  1
  O  O267  1  0.29040000  0.59100000  0.48010000  1
  O  O268  1  0.20840000  0.00940000  0.59100000  1
  O  O269  1  0.37690000  0.99220000  0.81090000  1
  O  O270  1  0.12290000  0.99140000  0.68970000  1
  O  O271  1  0.30860000  0.01920000  0.12470000  1
  O  O272  1  0.40880000  0.01830000  0.21050000  1
  O  O273  1  0.50970000  0.91030000  0.20910000  1
  O  O274  1  0.08000000  0.07900000  0.58200000  1
  O  O275  1  0.29030000  0.00730000  0.90820000  1
  O  O276  1  0.59020000  0.79120000  0.00790000  1
  O  O277  1  0.00690000  0.81020000  0.37600000  1
  O  O278  1  0.90980000  0.70930000  0.00850000  1
  O  O279  1  0.37730000  0.69230000  0.48000000  1
  O  O280  1  0.99100000  0.58870000  0.20970000  1
  O  O281  1  0.09090000  0.01910000  0.28950000  1
  O  O282  1  0.12200000  0.50720000  0.81000000  1
  O  O283  1  0.20970000  0.90820000  0.48120000  1
  O  O284  1  0.55940000  0.45070000  0.56660000  1
  O  O285  1  0.92000000  0.58100000  0.08200000  1
  O  O286  1  0.20890000  0.49180000  0.91160000  1
  O  O287  1  0.93460000  0.05940000  0.45010000  1
  O  O288  1  0.43900000  0.06200000  0.94000000  1
  O  O289  1  0.44960000  0.06670000  0.06070000  1
  O  O290  1  0.59100000  0.07790000  0.06580000  1
  O  O291  1  0.55700000  0.05050000  0.93380000  1
  O  O292  1  0.80980000  0.87660000  0.51000000  1
  O  O293  1  0.68910000  0.62390000  0.50640000  1
  O  O294  1  0.59040000  0.70940000  0.49090000  1
  O  O295  1  0.90950000  0.78920000  0.49160000  1
  O  O296  1  0.69120000  0.52050000  0.62230000  1
  O  O297  1  0.80730000  0.51990000  0.87580000  1
  O  O298  1  0.59030000  0.51880000  0.71120000  1
  O  O299  1  0.91010000  0.51890000  0.78990000  1
  O  O300  1  0.47900000  0.87830000  0.80700000  1
  O  O301  1  0.47980000  0.62320000  0.69020000  1
  O  O302  1  0.48100000  0.78980000  0.90780000  1
  O  O303  1  0.48170000  0.71140000  0.59180000  1
  O  O304  1  0.02050000  0.62370000  0.80740000  1
  O  O305  1  0.02060000  0.71070000  0.90880000  1
  O  O306  1  0.01660000  0.78910000  0.59130000  1
  O  O307  1  0.01930000  0.87710000  0.69140000  1
  O  O308  1  0.78890000  0.41060000  0.98130000  1
  O  O309  1  0.71110000  0.09020000  0.98190000  1
  O  O310  1  0.87710000  0.31000000  0.98130000  1
  O  O311  1  0.62410000  0.19160000  0.97920000  1
  O  O312  1  0.90950000  0.07820000  0.43440000  1
  O  O313  1  0.56000000  0.55900000  0.44100000  1
  O  O314  1  0.57890000  0.43320000  0.59130000  1
  O  O315  1  0.43640000  0.55890000  0.54720000  1
  O  O316  1  0.56600000  0.59000000  0.57960000  1
  O  O317  1  0.93900000  0.56100000  0.06000000  1
  O  O318  1  0.06620000  0.56020000  0.95020000  1
  O  O319  1  0.94140000  0.45390000  0.93270000  1
  O  O320  1  0.93100000  0.59000000  0.92300000  1
  O  O321  1  0.56690000  0.05860000  0.04880000  1
  O  O322  1  0.57830000  0.06800000  0.91000000  1
  O  O323  1  0.42000000  0.07900000  0.91900000  1
  O  O324  1  0.43310000  0.09100000  0.07800000  1
  O  O325  1  0.06000000  0.06100000  0.55800000  1
  O  O326  1  0.06490000  0.09200000  0.42290000  1
  O  O327  1  0.07840000  0.93420000  0.41160000  1
