# generated using pymatgen
data_Zr3H6(C3O5)4
_symmetry_space_group_name_H-M   'P 1'
_cell_length_a   17.93090000
_cell_length_b   17.93090000
_cell_length_c   17.93090000
_cell_angle_alpha   90.00000000
_cell_angle_beta   90.00000000
_cell_angle_gamma   90.00000000
_symmetry_Int_Tables_number   1
_chemical_formula_structural   Zr3H6(C3O5)4
_chemical_formula_sum   'Zr24 H48 C96 O160'
_cell_volume   5765.09230980
_cell_formula_units_Z   8
loop_
 _symmetry_equiv_pos_site_id
 _symmetry_equiv_pos_as_xyz
  1  'x, y, z'
loop_
 _atom_site_type_symbol
 _atom_site_label
 _atom_site_symmetry_multiplicity
 _atom_site_fract_x
 _atom_site_fract_y
 _atom_site_fract_z
 _atom_site_occupancy
  Zr  Zr0  1  0.36231000  0.51117000  0.01197000  1
  Zr  Zr1  1  0.13769000  0.98883000  0.01197000  1
  Zr  Zr2  1  0.36231000  0.98883000  0.48803000  1
  Zr  Zr3  1  0.13769000  0.51117000  0.48803000  1
  Zr  Zr4  1  0.01197000  0.36231000  0.51117000  1
  Zr  Zr5  1  0.48803000  0.13769000  0.51117000  1
  Zr  Zr6  1  0.01197000  0.13769000  0.98883000  1
  Zr  Zr7  1  0.48803000  0.36231000  0.98883000  1
  Zr  Zr8  1  0.51117000  0.01197000  0.36231000  1
  Zr  Zr9  1  0.51117000  0.48803000  0.13769000  1
  Zr  Zr10  1  0.98883000  0.01197000  0.13769000  1
  Zr  Zr11  1  0.98883000  0.48803000  0.36231000  1
  Zr  Zr12  1  0.63769000  0.48883000  0.98803000  1
  Zr  Zr13  1  0.86231000  0.01117000  0.98803000  1
  Zr  Zr14  1  0.63769000  0.01117000  0.51197000  1
  Zr  Zr15  1  0.86231000  0.48883000  0.51197000  1
  Zr  Zr16  1  0.98803000  0.63769000  0.48883000  1
  Zr  Zr17  1  0.51197000  0.86231000  0.48883000  1
  Zr  Zr18  1  0.98803000  0.86231000  0.01117000  1
  Zr  Zr19  1  0.51197000  0.63769000  0.01117000  1
  Zr  Zr20  1  0.48883000  0.98803000  0.63769000  1
  Zr  Zr21  1  0.48883000  0.51197000  0.86231000  1
  Zr  Zr22  1  0.01117000  0.98803000  0.86231000  1
  Zr  Zr23  1  0.01117000  0.51197000  0.63769000  1
  H  H24  1  0.30670000  0.80420000  0.02560000  1
  H  H25  1  0.19530000  0.30650000  0.99990000  1
  H  H26  1  0.19330000  0.69580000  0.02560000  1
  H  H27  1  0.30470000  0.19350000  0.99990000  1
  H  H28  1  0.30670000  0.69580000  0.47440000  1
  H  H29  1  0.19530000  0.19350000  0.50010000  1
  H  H30  1  0.19330000  0.80420000  0.47440000  1
  H  H31  1  0.30470000  0.30650000  0.50010000  1
  H  H32  1  0.02560000  0.30670000  0.80420000  1
  H  H33  1  0.99990000  0.19530000  0.30650000  1
  H  H34  1  0.47440000  0.19330000  0.80420000  1
  H  H35  1  0.50010000  0.30470000  0.30650000  1
  H  H36  1  0.02560000  0.19330000  0.69580000  1
  H  H37  1  0.99990000  0.30470000  0.19350000  1
  H  H38  1  0.47440000  0.30670000  0.69580000  1
  H  H39  1  0.50010000  0.19530000  0.19350000  1
  H  H40  1  0.80420000  0.02560000  0.30670000  1
  H  H41  1  0.30650000  0.99990000  0.19530000  1
  H  H42  1  0.80420000  0.47440000  0.19330000  1
  H  H43  1  0.30650000  0.50010000  0.30470000  1
  H  H44  1  0.69580000  0.02560000  0.19330000  1
  H  H45  1  0.19350000  0.99990000  0.30470000  1
  H  H46  1  0.69580000  0.47440000  0.30670000  1
  H  H47  1  0.19350000  0.50010000  0.19530000  1
  H  H48  1  0.69330000  0.19580000  0.97440000  1
  H  H49  1  0.80470000  0.69350000  0.00010000  1
  H  H50  1  0.80670000  0.30420000  0.97440000  1
  H  H51  1  0.69530000  0.80650000  0.00010000  1
  H  H52  1  0.69330000  0.30420000  0.52560000  1
  H  H53  1  0.80470000  0.80650000  0.49990000  1
  H  H54  1  0.80670000  0.19580000  0.52560000  1
  H  H55  1  0.69530000  0.69350000  0.49990000  1
  H  H56  1  0.97440000  0.69330000  0.19580000  1
  H  H57  1  0.00010000  0.80470000  0.69350000  1
  H  H58  1  0.52560000  0.80670000  0.19580000  1
  H  H59  1  0.49990000  0.69530000  0.69350000  1
  H  H60  1  0.97440000  0.80670000  0.30420000  1
  H  H61  1  0.00010000  0.69530000  0.80650000  1
  H  H62  1  0.52560000  0.69330000  0.30420000  1
  H  H63  1  0.49990000  0.80470000  0.80650000  1
  H  H64  1  0.19580000  0.97440000  0.69330000  1
  H  H65  1  0.69350000  0.00010000  0.80470000  1
  H  H66  1  0.19580000  0.52560000  0.80670000  1
  H  H67  1  0.69350000  0.49990000  0.69530000  1
  H  H68  1  0.30420000  0.97440000  0.80670000  1
  H  H69  1  0.80650000  0.00010000  0.69530000  1
  H  H70  1  0.30420000  0.52560000  0.69330000  1
  H  H71  1  0.80650000  0.49990000  0.80470000  1
  C  C72  1  0.33980000  0.68950000  0.02410000  1
  C  C73  1  0.28710000  0.75500000  0.02500000  1
  C  C74  1  0.31010000  0.34010000  0.00040000  1
  C  C75  1  0.24470000  0.28720000  0.00010000  1
  C  C76  1  0.16020000  0.81050000  0.02410000  1
  C  C77  1  0.21290000  0.74500000  0.02500000  1
  C  C78  1  0.18990000  0.15990000  0.00040000  1
  C  C79  1  0.25530000  0.21280000  0.00010000  1
  C  C80  1  0.33980000  0.81050000  0.47590000  1
  C  C81  1  0.28710000  0.74500000  0.47500000  1
  C  C82  1  0.31010000  0.15990000  0.49960000  1
  C  C83  1  0.24470000  0.21280000  0.49990000  1
  C  C84  1  0.16020000  0.68950000  0.47590000  1
  C  C85  1  0.21290000  0.75500000  0.47500000  1
  C  C86  1  0.18990000  0.34010000  0.49960000  1
  C  C87  1  0.25530000  0.28720000  0.49990000  1
  C  C88  1  0.02410000  0.33980000  0.68950000  1
  C  C89  1  0.02500000  0.28710000  0.75500000  1
  C  C90  1  0.00040000  0.31010000  0.34010000  1
  C  C91  1  0.00010000  0.24470000  0.28720000  1
  C  C92  1  0.47590000  0.16020000  0.68950000  1
  C  C93  1  0.47500000  0.21290000  0.75500000  1
  C  C94  1  0.49960000  0.18990000  0.34010000  1
  C  C95  1  0.49990000  0.25530000  0.28720000  1
  C  C96  1  0.02410000  0.16020000  0.81050000  1
  C  C97  1  0.02500000  0.21290000  0.74500000  1
  C  C98  1  0.00040000  0.18990000  0.15990000  1
  C  C99  1  0.00010000  0.25530000  0.21280000  1
  C  C100  1  0.47590000  0.33980000  0.81050000  1
  C  C101  1  0.47500000  0.28710000  0.74500000  1
  C  C102  1  0.49960000  0.31010000  0.15990000  1
  C  C103  1  0.49990000  0.24470000  0.21280000  1
  C  C104  1  0.68950000  0.02410000  0.33980000  1
  C  C105  1  0.75500000  0.02500000  0.28710000  1
  C  C106  1  0.34010000  0.00040000  0.31010000  1
  C  C107  1  0.28720000  0.00010000  0.24470000  1
  C  C108  1  0.68950000  0.47590000  0.16020000  1
  C  C109  1  0.75500000  0.47500000  0.21290000  1
  C  C110  1  0.34010000  0.49960000  0.18990000  1
  C  C111  1  0.28720000  0.49990000  0.25530000  1
  C  C112  1  0.81050000  0.02410000  0.16020000  1
  C  C113  1  0.74500000  0.02500000  0.21290000  1
  C  C114  1  0.15990000  0.00040000  0.18990000  1
  C  C115  1  0.21280000  0.00010000  0.25530000  1
  C  C116  1  0.81050000  0.47590000  0.33980000  1
  C  C117  1  0.74500000  0.47500000  0.28710000  1
  C  C118  1  0.15990000  0.49960000  0.31010000  1
  C  C119  1  0.21280000  0.49990000  0.24470000  1
  C  C120  1  0.66020000  0.31050000  0.97590000  1
  C  C121  1  0.71290000  0.24500000  0.97500000  1
  C  C122  1  0.68990000  0.65990000  0.99960000  1
  C  C123  1  0.75530000  0.71280000  0.99990000  1
  C  C124  1  0.83980000  0.18950000  0.97590000  1
  C  C125  1  0.78710000  0.25500000  0.97500000  1
  C  C126  1  0.81010000  0.84010000  0.99960000  1
  C  C127  1  0.74470000  0.78720000  0.99990000  1
  C  C128  1  0.66020000  0.18950000  0.52410000  1
  C  C129  1  0.71290000  0.25500000  0.52500000  1
  C  C130  1  0.68990000  0.84010000  0.50040000  1
  C  C131  1  0.75530000  0.78720000  0.50010000  1
  C  C132  1  0.83980000  0.31050000  0.52410000  1
  C  C133  1  0.78710000  0.24500000  0.52500000  1
  C  C134  1  0.81010000  0.65990000  0.50040000  1
  C  C135  1  0.74470000  0.71280000  0.50010000  1
  C  C136  1  0.97590000  0.66020000  0.31050000  1
  C  C137  1  0.97500000  0.71290000  0.24500000  1
  C  C138  1  0.99960000  0.68990000  0.65990000  1
  C  C139  1  0.99990000  0.75530000  0.71280000  1
  C  C140  1  0.52410000  0.83980000  0.31050000  1
  C  C141  1  0.52500000  0.78710000  0.24500000  1
  C  C142  1  0.50040000  0.81010000  0.65990000  1
  C  C143  1  0.50010000  0.74470000  0.71280000  1
  C  C144  1  0.97590000  0.83980000  0.18950000  1
  C  C145  1  0.97500000  0.78710000  0.25500000  1
  C  C146  1  0.99960000  0.81010000  0.84010000  1
  C  C147  1  0.99990000  0.74470000  0.78720000  1
  C  C148  1  0.52410000  0.66020000  0.18950000  1
  C  C149  1  0.52500000  0.71290000  0.25500000  1
  C  C150  1  0.50040000  0.68990000  0.84010000  1
  C  C151  1  0.50010000  0.75530000  0.78720000  1
  C  C152  1  0.31050000  0.97590000  0.66020000  1
  C  C153  1  0.24500000  0.97500000  0.71290000  1
  C  C154  1  0.65990000  0.99960000  0.68990000  1
  C  C155  1  0.71280000  0.99990000  0.75530000  1
  C  C156  1  0.31050000  0.52410000  0.83980000  1
  C  C157  1  0.24500000  0.52500000  0.78710000  1
  C  C158  1  0.65990000  0.50040000  0.81010000  1
  C  C159  1  0.71280000  0.50010000  0.74470000  1
  C  C160  1  0.18950000  0.97590000  0.83980000  1
  C  C161  1  0.25500000  0.97500000  0.78710000  1
  C  C162  1  0.84010000  0.99960000  0.81010000  1
  C  C163  1  0.78720000  0.99990000  0.74470000  1
  C  C164  1  0.18950000  0.52410000  0.66020000  1
  C  C165  1  0.25500000  0.52500000  0.71290000  1
  C  C166  1  0.84010000  0.50040000  0.68990000  1
  C  C167  1  0.78720000  0.50010000  0.75530000  1
  O  O168  1  0.45070000  0.55900000  0.06870000  1
  O  O169  1  0.31060000  0.62350000  0.02400000  1
  O  O170  1  0.29080000  0.40950000  0.00860000  1
  O  O171  1  0.41010000  0.70820000  0.02390000  1
  O  O172  1  0.37560000  0.31050000  0.99280000  1
  O  O173  1  0.43500000  0.57770000  0.09180000  1
  O  O174  1  0.42110000  0.42110000  0.07890000  1
  O  O175  1  0.44020000  0.44020000  0.05980000  1
  O  O176  1  0.04930000  0.94100000  0.06870000  1
  O  O177  1  0.18940000  0.87650000  0.02400000  1
  O  O178  1  0.20920000  0.09050000  0.00860000  1
  O  O179  1  0.08990000  0.79180000  0.02390000  1
  O  O180  1  0.12440000  0.18950000  0.99280000  1
  O  O181  1  0.06500000  0.92230000  0.09180000  1
  O  O182  1  0.07890000  0.07890000  0.07890000  1
  O  O183  1  0.05980000  0.05980000  0.05980000  1
  O  O184  1  0.45070000  0.94100000  0.43130000  1
  O  O185  1  0.31060000  0.87650000  0.47600000  1
  O  O186  1  0.29080000  0.09050000  0.49140000  1
  O  O187  1  0.41010000  0.79180000  0.47610000  1
  O  O188  1  0.37560000  0.18950000  0.50720000  1
  O  O189  1  0.43500000  0.92230000  0.40820000  1
  O  O190  1  0.42110000  0.07890000  0.42110000  1
  O  O191  1  0.44020000  0.05980000  0.44020000  1
  O  O192  1  0.04930000  0.55900000  0.43130000  1
  O  O193  1  0.18940000  0.62350000  0.47600000  1
  O  O194  1  0.20920000  0.40950000  0.49140000  1
  O  O195  1  0.08990000  0.70820000  0.47610000  1
  O  O196  1  0.12440000  0.31050000  0.50720000  1
  O  O197  1  0.06500000  0.57770000  0.40820000  1
  O  O198  1  0.07890000  0.42110000  0.42110000  1
  O  O199  1  0.05980000  0.44020000  0.44020000  1
  O  O200  1  0.06870000  0.45070000  0.55900000  1
  O  O201  1  0.02400000  0.31060000  0.62350000  1
  O  O202  1  0.00860000  0.29080000  0.40950000  1
  O  O203  1  0.02390000  0.41010000  0.70820000  1
  O  O204  1  0.99280000  0.37560000  0.31050000  1
  O  O205  1  0.09180000  0.43500000  0.57770000  1
  O  O206  1  0.43130000  0.04930000  0.55900000  1
  O  O207  1  0.47600000  0.18940000  0.62350000  1
  O  O208  1  0.49140000  0.20920000  0.40950000  1
  O  O209  1  0.47610000  0.08990000  0.70820000  1
  O  O210  1  0.50720000  0.12440000  0.31050000  1
  O  O211  1  0.40820000  0.06500000  0.57770000  1
  O  O212  1  0.06870000  0.04930000  0.94100000  1
  O  O213  1  0.02400000  0.18940000  0.87650000  1
  O  O214  1  0.00860000  0.20920000  0.09050000  1
  O  O215  1  0.02390000  0.08990000  0.79180000  1
  O  O216  1  0.99280000  0.12440000  0.18950000  1
  O  O217  1  0.09180000  0.06500000  0.92230000  1
  O  O218  1  0.43130000  0.45070000  0.94100000  1
  O  O219  1  0.47600000  0.31060000  0.87650000  1
  O  O220  1  0.49140000  0.29080000  0.09050000  1
  O  O221  1  0.47610000  0.41010000  0.79180000  1
  O  O222  1  0.50720000  0.37560000  0.18950000  1
  O  O223  1  0.40820000  0.43500000  0.92230000  1
  O  O224  1  0.55900000  0.06870000  0.45070000  1
  O  O225  1  0.62350000  0.02400000  0.31060000  1
  O  O226  1  0.40950000  0.00860000  0.29080000  1
  O  O227  1  0.70820000  0.02390000  0.41010000  1
  O  O228  1  0.31050000  0.99280000  0.37560000  1
  O  O229  1  0.57770000  0.09180000  0.43500000  1
  O  O230  1  0.55900000  0.43130000  0.04930000  1
  O  O231  1  0.62350000  0.47600000  0.18940000  1
  O  O232  1  0.40950000  0.49140000  0.20920000  1
  O  O233  1  0.70820000  0.47610000  0.08990000  1
  O  O234  1  0.31050000  0.50720000  0.12440000  1
  O  O235  1  0.57770000  0.40820000  0.06500000  1
  O  O236  1  0.94100000  0.06870000  0.04930000  1
  O  O237  1  0.87650000  0.02400000  0.18940000  1
  O  O238  1  0.09050000  0.00860000  0.20920000  1
  O  O239  1  0.79180000  0.02390000  0.08990000  1
  O  O240  1  0.18950000  0.99280000  0.12440000  1
  O  O241  1  0.92230000  0.09180000  0.06500000  1
  O  O242  1  0.94100000  0.43130000  0.45070000  1
  O  O243  1  0.87650000  0.47600000  0.31060000  1
  O  O244  1  0.09050000  0.49140000  0.29080000  1
  O  O245  1  0.79180000  0.47610000  0.41010000  1
  O  O246  1  0.18950000  0.50720000  0.37560000  1
  O  O247  1  0.92230000  0.40820000  0.43500000  1
  O  O248  1  0.54930000  0.44100000  0.93130000  1
  O  O249  1  0.68940000  0.37650000  0.97600000  1
  O  O250  1  0.70920000  0.59050000  0.99140000  1
  O  O251  1  0.58990000  0.29180000  0.97610000  1
  O  O252  1  0.62440000  0.68950000  0.00720000  1
  O  O253  1  0.56500000  0.42230000  0.90820000  1
  O  O254  1  0.57890000  0.57890000  0.92110000  1
  O  O255  1  0.55980000  0.55980000  0.94020000  1
  O  O256  1  0.95070000  0.05900000  0.93130000  1
  O  O257  1  0.81060000  0.12350000  0.97600000  1
  O  O258  1  0.79080000  0.90950000  0.99140000  1
  O  O259  1  0.91010000  0.20820000  0.97610000  1
  O  O260  1  0.87560000  0.81050000  0.00720000  1
  O  O261  1  0.93500000  0.07770000  0.90820000  1
  O  O262  1  0.92110000  0.92110000  0.92110000  1
  O  O263  1  0.94020000  0.94020000  0.94020000  1
  O  O264  1  0.54930000  0.05900000  0.56870000  1
  O  O265  1  0.68940000  0.12350000  0.52400000  1
  O  O266  1  0.70920000  0.90950000  0.50860000  1
  O  O267  1  0.58990000  0.20820000  0.52390000  1
  O  O268  1  0.62440000  0.81050000  0.49280000  1
  O  O269  1  0.56500000  0.07770000  0.59180000  1
  O  O270  1  0.57890000  0.92110000  0.57890000  1
  O  O271  1  0.55980000  0.94020000  0.55980000  1
  O  O272  1  0.95070000  0.44100000  0.56870000  1
  O  O273  1  0.81060000  0.37650000  0.52400000  1
  O  O274  1  0.79080000  0.59050000  0.50860000  1
  O  O275  1  0.91010000  0.29180000  0.52390000  1
  O  O276  1  0.87560000  0.68950000  0.49280000  1
  O  O277  1  0.93500000  0.42230000  0.59180000  1
  O  O278  1  0.92110000  0.57890000  0.57890000  1
  O  O279  1  0.94020000  0.55980000  0.55980000  1
  O  O280  1  0.93130000  0.54930000  0.44100000  1
  O  O281  1  0.97600000  0.68940000  0.37650000  1
  O  O282  1  0.99140000  0.70920000  0.59050000  1
  O  O283  1  0.97610000  0.58990000  0.29180000  1
  O  O284  1  0.00720000  0.62440000  0.68950000  1
  O  O285  1  0.90820000  0.56500000  0.42230000  1
  O  O286  1  0.56870000  0.95070000  0.44100000  1
  O  O287  1  0.52400000  0.81060000  0.37650000  1
  O  O288  1  0.50860000  0.79080000  0.59050000  1
  O  O289  1  0.52390000  0.91010000  0.29180000  1
  O  O290  1  0.49280000  0.87560000  0.68950000  1
  O  O291  1  0.59180000  0.93500000  0.42230000  1
  O  O292  1  0.93130000  0.95070000  0.05900000  1
  O  O293  1  0.97600000  0.81060000  0.12350000  1
  O  O294  1  0.99140000  0.79080000  0.90950000  1
  O  O295  1  0.97610000  0.91010000  0.20820000  1
  O  O296  1  0.00720000  0.87560000  0.81050000  1
  O  O297  1  0.90820000  0.93500000  0.07770000  1
  O  O298  1  0.56870000  0.54930000  0.05900000  1
  O  O299  1  0.52400000  0.68940000  0.12350000  1
  O  O300  1  0.50860000  0.70920000  0.90950000  1
  O  O301  1  0.52390000  0.58990000  0.20820000  1
  O  O302  1  0.49280000  0.62440000  0.81050000  1
  O  O303  1  0.59180000  0.56500000  0.07770000  1
  O  O304  1  0.44100000  0.93130000  0.54930000  1
  O  O305  1  0.37650000  0.97600000  0.68940000  1
  O  O306  1  0.59050000  0.99140000  0.70920000  1
  O  O307  1  0.29180000  0.97610000  0.58990000  1
  O  O308  1  0.68950000  0.00720000  0.62440000  1
  O  O309  1  0.42230000  0.90820000  0.56500000  1
  O  O310  1  0.44100000  0.56870000  0.95070000  1
  O  O311  1  0.37650000  0.52400000  0.81060000  1
  O  O312  1  0.59050000  0.50860000  0.79080000  1
  O  O313  1  0.29180000  0.52390000  0.91010000  1
  O  O314  1  0.68950000  0.49280000  0.87560000  1
  O  O315  1  0.42230000  0.59180000  0.93500000  1
  O  O316  1  0.05900000  0.93130000  0.95070000  1
  O  O317  1  0.12350000  0.97600000  0.81060000  1
  O  O318  1  0.90950000  0.99140000  0.79080000  1
  O  O319  1  0.20820000  0.97610000  0.91010000  1
  O  O320  1  0.81050000  0.00720000  0.87560000  1
  O  O321  1  0.07770000  0.90820000  0.93500000  1
  O  O322  1  0.05900000  0.56870000  0.54930000  1
  O  O323  1  0.12350000  0.52400000  0.68940000  1
  O  O324  1  0.90950000  0.50860000  0.70920000  1
  O  O325  1  0.20820000  0.52390000  0.58990000  1
  O  O326  1  0.81050000  0.49280000  0.62440000  1
  O  O327  1  0.07770000  0.59180000  0.56500000  1
