# generated using pymatgen
data_Zr6H62C93(NO23)2
_symmetry_space_group_name_H-M   'P 1'
_cell_length_a   17.35450000
_cell_length_b   18.92016377
_cell_length_c   18.92016377
_cell_angle_alpha   101.40876430
_cell_angle_beta   93.98573493
_cell_angle_gamma   93.98573493
_symmetry_Int_Tables_number   1
_chemical_formula_structural   Zr6H62C93(NO23)2
_chemical_formula_sum   'Zr12 H124 C186 N4 O92'
_cell_volume   6052.89594226
_cell_formula_units_Z   2
loop_
 _symmetry_equiv_pos_site_id
 _symmetry_equiv_pos_as_xyz
  1  'x, y, z'
loop_
 _atom_site_type_symbol
 _atom_site_label
 _atom_site_symmetry_multiplicity
 _atom_site_fract_x
 _atom_site_fract_y
 _atom_site_fract_z
 _atom_site_occupancy
  C  C0  1  0.12220000  0.28730000  0.11090000  1
  C  C1  1  0.19690000  0.37050000  0.05550000  1
  C  C2  1  0.70690000  0.37920000  0.03140000  1
  C  C3  1  0.98870000  0.22960000  0.05000000  1
  C  C4  1  0.77840000  0.33990000  0.03950000  1
  C  C5  1  0.27210000  0.41200000  0.04880000  1
  C  C6  1  0.98350000  0.19080000  0.11400000  1
  C  C7  1  0.91440000  0.26970000  0.04790000  1
  C  C8  1  0.97910000  0.09090000  0.29970000  1
  C  C9  1  0.97950000  0.12490000  0.23490000  1
  C  C10  1  0.19020000  0.33180000  0.11000000  1
  C  C11  1  0.06110000  0.28350000  0.05830000  1
  C  C12  1  0.13450000  0.36870000  0.00430000  1
  C  C13  1  0.06800000  0.32530000  0.00570000  1
  C  C14  1  0.99880000  0.17820000  0.97780000  1
  C  C15  1  0.91550000  0.34340000  0.07260000  1
  C  C16  1  0.84340000  0.23070000  0.02590000  1
  C  C17  1  0.97290000  0.23070000  0.18110000  1
  C  C18  1  0.97060000  0.19790000  0.24250000  1
  C  C19  1  0.77650000  0.26500000  0.02080000  1
  C  C20  1  0.84800000  0.37840000  0.07060000  1
  C  C21  1  0.06620000  0.14310000  0.97310000  1
  C  C22  1  0.99110000  0.08600000  0.16760000  1
  C  C23  1  0.99390000  0.11960000  0.10780000  1
  C  C24  1  0.04340000  0.11770000  0.84590000  1
  C  C25  1  0.95870000  0.18510000  0.91550000  1
  C  C26  1  0.98050000  0.15210000  0.85010000  1
  C  C27  1  0.07430000  0.09320000  0.76980000  1
  C  C28  1  0.09210000  0.11130000  0.90810000  1
  C  C29  1  0.29280000  0.51650000  0.56990000  1
  C  C30  1  0.30500000  0.51400000  0.43480000  1
  C  C31  1  0.39360000  0.59440000  0.38780000  1
  C  C32  1  0.33920000  0.48120000  0.31240000  1
  C  C33  1  0.38510000  0.54580000  0.32020000  1
  C  C34  1  0.40770000  0.51650000  0.65090000  1
  C  C35  1  0.35400000  0.57780000  0.44400000  1
  C  C36  1  0.37160000  0.51640000  0.58160000  1
  C  C37  1  0.24710000  0.51780000  0.62840000  1
  C  C38  1  0.29910000  0.46480000  0.36940000  1
  C  C39  1  0.36130000  0.51510000  0.70730000  1
  C  C40  1  0.39790000  0.51120000  0.78040000  1
  C  C41  1  0.28090000  0.51590000  0.69670000  1
  C  C42  1  0.42100000  0.56520000  0.25740000  1
  C  C43  1  0.91330000  0.43610000  0.90330000  1
  C  C44  1  0.90490000  0.51410000  0.80390000  1
  C  C45  1  0.77940000  0.44700000  0.83600000  1
  C  C46  1  0.25000000  0.50590000  0.49410000  1
  C  C47  1  0.37780000  0.88910000  0.71270000  1
  C  C48  1  0.30310000  0.94450000  0.62950000  1
  C  C49  1  0.79310000  0.96860000  0.62080000  1
  C  C50  1  0.51130000  0.95000000  0.77040000  1
  C  C51  1  0.72160000  0.96050000  0.66010000  1
  C  C52  1  0.22790000  0.95120000  0.58800000  1
  C  C53  1  0.51650000  0.88600000  0.80920000  1
  C  C54  1  0.58560000  0.95210000  0.73030000  1
  C  C55  1  0.52090000  0.70030000  0.90910000  1
  C  C56  1  0.52050000  0.76510000  0.87510000  1
  C  C57  1  0.30980000  0.89000000  0.66820000  1
  C  C58  1  0.43890000  0.94170000  0.71650000  1
  C  C59  1  0.36550000  0.99570000  0.63130000  1
  C  C60  1  0.43200000  0.99430000  0.67470000  1
  C  C61  1  0.50120000  0.02220000  0.82180000  1
  C  C62  1  0.58450000  0.92740000  0.65660000  1
  C  C63  1  0.65660000  0.97410000  0.76930000  1
  C  C64  1  0.52710000  0.81890000  0.76930000  1
  C  C65  1  0.52940000  0.75750000  0.80210000  1
  C  C66  1  0.72350000  0.97920000  0.73500000  1
  C  C67  1  0.65200000  0.92940000  0.62160000  1
  C  C68  1  0.43380000  0.02690000  0.85690000  1
  C  C69  1  0.50890000  0.83240000  0.91400000  1
  C  C70  1  0.50610000  0.89220000  0.88040000  1
  C  C71  1  0.45660000  0.15410000  0.88230000  1
  C  C72  1  0.54130000  0.08450000  0.81490000  1
  C  C73  1  0.51950000  0.14990000  0.84790000  1
  C  C74  1  0.42570000  0.23020000  0.90680000  1
  C  C75  1  0.40790000  0.09190000  0.88870000  1
  C  C76  1  0.20720000  0.43010000  0.48350000  1
  C  C77  1  0.19500000  0.56520000  0.48600000  1
  C  C78  1  0.10640000  0.61220000  0.40560000  1
  C  C79  1  0.16080000  0.68760000  0.51880000  1
  C  C80  1  0.11490000  0.67980000  0.45420000  1
  C  C81  1  0.09230000  0.34910000  0.48350000  1
  C  C82  1  0.14600000  0.55600000  0.42220000  1
  C  C83  1  0.12840000  0.41840000  0.48360000  1
  C  C84  1  0.25290000  0.37160000  0.48220000  1
  C  C85  1  0.20090000  0.63060000  0.53520000  1
  C  C86  1  0.13870000  0.29270000  0.48490000  1
  C  C87  1  0.10210000  0.21960000  0.48880000  1
  C  C88  1  0.21910000  0.30330000  0.48410000  1
  C  C89  1  0.07900000  0.74260000  0.43480000  1
  C  C90  1  0.58670000  0.09670000  0.56390000  1
  C  C91  1  0.59510000  0.19610000  0.48590000  1
  C  C92  1  0.72060000  0.16400000  0.55300000  1
  C  C93  1  0.87780000  0.71270000  0.88910000  1
  C  C94  1  0.80310000  0.62950000  0.94450000  1
  C  C95  1  0.29310000  0.62080000  0.96860000  1
  C  C96  1  0.01130000  0.77040000  0.95000000  1
  C  C97  1  0.22160000  0.66010000  0.96050000  1
  C  C98  1  0.72790000  0.58800000  0.95120000  1
  C  C99  1  0.01650000  0.80920000  0.88600000  1
  C  C100  1  0.08560000  0.73030000  0.95210000  1
  C  C101  1  0.02090000  0.90910000  0.70030000  1
  C  C102  1  0.02050000  0.87510000  0.76510000  1
  C  C103  1  0.80980000  0.66820000  0.89000000  1
  C  C104  1  0.93890000  0.71650000  0.94170000  1
  C  C105  1  0.86550000  0.63130000  0.99570000  1
  C  C106  1  0.93200000  0.67470000  0.99430000  1
  C  C107  1  0.00120000  0.82180000  0.02220000  1
  C  C108  1  0.08450000  0.65660000  0.92740000  1
  C  C109  1  0.15660000  0.76930000  0.97410000  1
  C  C110  1  0.02710000  0.76930000  0.81890000  1
  C  C111  1  0.02940000  0.80210000  0.75750000  1
  C  C112  1  0.22350000  0.73500000  0.97920000  1
  C  C113  1  0.15200000  0.62160000  0.92940000  1
  C  C114  1  0.93380000  0.85690000  0.02690000  1
  C  C115  1  0.00890000  0.91400000  0.83240000  1
  C  C116  1  0.00610000  0.88040000  0.89220000  1
  C  C117  1  0.95660000  0.88230000  0.15410000  1
  C  C118  1  0.04130000  0.81490000  0.08450000  1
  C  C119  1  0.01950000  0.84790000  0.14990000  1
  C  C120  1  0.92570000  0.90680000  0.23020000  1
  C  C121  1  0.90790000  0.88870000  0.09190000  1
  C  C122  1  0.70720000  0.48350000  0.43010000  1
  C  C123  1  0.69500000  0.48600000  0.56520000  1
  C  C124  1  0.60640000  0.40560000  0.61220000  1
  C  C125  1  0.66080000  0.51880000  0.68760000  1
  C  C126  1  0.61490000  0.45420000  0.67980000  1
  C  C127  1  0.59230000  0.48350000  0.34910000  1
  C  C128  1  0.64600000  0.42220000  0.55600000  1
  C  C129  1  0.62840000  0.48360000  0.41840000  1
  C  C130  1  0.75290000  0.48220000  0.37160000  1
  C  C131  1  0.70090000  0.53520000  0.63060000  1
  C  C132  1  0.63870000  0.48490000  0.29270000  1
  C  C133  1  0.60210000  0.48880000  0.21960000  1
  C  C134  1  0.71910000  0.48410000  0.30330000  1
  C  C135  1  0.57900000  0.43480000  0.74260000  1
  C  C136  1  0.08670000  0.56390000  0.09670000  1
  C  C137  1  0.09510000  0.48590000  0.19610000  1
  C  C138  1  0.22060000  0.55300000  0.16400000  1
  C  C139  1  0.75000000  0.49410000  0.50590000  1
  C  C140  1  0.62220000  0.11090000  0.28730000  1
  C  C141  1  0.69690000  0.05550000  0.37050000  1
  C  C142  1  0.20690000  0.03140000  0.37920000  1
  C  C143  1  0.48870000  0.05000000  0.22960000  1
  C  C144  1  0.27840000  0.03950000  0.33990000  1
  C  C145  1  0.77210000  0.04880000  0.41200000  1
  C  C146  1  0.48350000  0.11400000  0.19080000  1
  C  C147  1  0.41440000  0.04790000  0.26970000  1
  C  C148  1  0.47910000  0.29970000  0.09090000  1
  C  C149  1  0.47950000  0.23490000  0.12490000  1
  C  C150  1  0.69020000  0.11000000  0.33180000  1
  C  C151  1  0.56110000  0.05830000  0.28350000  1
  C  C152  1  0.63450000  0.00430000  0.36870000  1
  C  C153  1  0.56800000  0.00570000  0.32530000  1
  C  C154  1  0.49880000  0.97780000  0.17820000  1
  C  C155  1  0.41550000  0.07260000  0.34340000  1
  C  C156  1  0.34340000  0.02590000  0.23070000  1
  C  C157  1  0.47290000  0.18110000  0.23070000  1
  C  C158  1  0.47060000  0.24250000  0.19790000  1
  C  C159  1  0.27650000  0.02080000  0.26500000  1
  C  C160  1  0.34800000  0.07060000  0.37840000  1
  C  C161  1  0.56620000  0.97310000  0.14310000  1
  C  C162  1  0.49110000  0.16760000  0.08600000  1
  C  C163  1  0.49390000  0.10780000  0.11960000  1
  C  C164  1  0.54340000  0.84590000  0.11770000  1
  C  C165  1  0.45870000  0.91550000  0.18510000  1
  C  C166  1  0.48050000  0.85010000  0.15210000  1
  C  C167  1  0.57430000  0.76980000  0.09320000  1
  C  C168  1  0.59210000  0.90810000  0.11130000  1
  C  C169  1  0.79280000  0.56990000  0.51650000  1
  C  C170  1  0.80500000  0.43480000  0.51400000  1
  C  C171  1  0.89360000  0.38780000  0.59440000  1
  C  C172  1  0.83920000  0.31240000  0.48120000  1
  C  C173  1  0.88510000  0.32020000  0.54580000  1
  C  C174  1  0.90770000  0.65090000  0.51650000  1
  C  C175  1  0.85400000  0.44400000  0.57780000  1
  C  C176  1  0.87160000  0.58160000  0.51640000  1
  C  C177  1  0.74710000  0.62840000  0.51780000  1
  C  C178  1  0.79910000  0.36940000  0.46480000  1
  C  C179  1  0.86130000  0.70730000  0.51510000  1
  C  C180  1  0.89790000  0.78040000  0.51120000  1
  C  C181  1  0.78090000  0.69670000  0.51590000  1
  C  C182  1  0.92100000  0.25740000  0.56520000  1
  C  C183  1  0.41330000  0.90330000  0.43610000  1
  C  C184  1  0.40490000  0.80390000  0.51410000  1
  C  C185  1  0.27940000  0.83600000  0.44700000  1
  H  H186  1  0.96578000  0.29108000  0.18824000  1
  H  H187  1  0.96144000  0.23187000  0.29767000  1
  H  H188  1  0.99860000  0.02564000  0.15972000  1
  H  H189  1  0.00520000  0.08568000  0.05324000  1
  H  H190  1  0.06716000  0.60448000  0.35330000  1
  H  H191  1  0.16625000  0.74123000  0.55953000  1
  H  H192  1  0.23824000  0.63751000  0.58851000  1
  H  H193  1  0.63913000  0.38373000  0.50095000  1
  H  H194  1  0.59183000  0.48377000  0.46619000  1
  H  H195  1  0.81825000  0.47957000  0.37991000  1
  H  H196  1  0.75691000  0.48499000  0.25651000  1
  H  H197  1  0.97245000  0.37648000  0.09508000  1
  H  H198  1  0.71918000  0.23141000  0.00103000  1
  H  H199  1  0.84950000  0.43878000  0.09446000  1
  H  H200  1  0.88301000  0.74581000  0.84519000  1
  H  H201  1  0.76043000  0.66406000  0.84598000  1
  H  H202  1  0.86122000  0.59681000  0.03855000  1
  H  H203  1  0.98203000  0.67619000  0.03707000  1
  H  H204  1  0.83966000  0.16906000  0.01164000  1
  H  H205  1  0.90651000  0.21865000  0.91781000  1
  H  H206  1  0.94333000  0.15468000  0.79872000  1
  H  H207  1  0.10291000  0.13960000  0.02446000  1
  H  H208  1  0.14804000  0.08303000  0.90731000  1
  H  H209  1  0.31614000  0.31860000  0.81800000  1
  H  H210  1  0.40044000  0.62190000  0.09570000  1
  H  H211  1  0.47350000  0.51771000  0.65929000  1
  H  H212  1  0.90605000  0.46563000  0.96079000  1
  H  H213  1  0.97695000  0.44178000  0.89228000  1
  H  H214  1  0.89314000  0.37637000  0.89691000  1
  H  H215  1  0.92639000  0.57287000  0.82771000  1
  H  H216  1  0.91330000  0.48967000  0.74513000  1
  H  H217  1  0.53422000  0.81176000  0.70892000  1
  H  H218  1  0.53856000  0.70233000  0.76813000  1
  H  H219  1  0.50140000  0.84028000  0.97436000  1
  H  H220  1  0.49480000  0.94676000  0.91432000  1
  H  H221  1  0.43284000  0.64670000  0.39552000  1
  H  H222  1  0.33375000  0.44047000  0.25877000  1
  H  H223  1  0.26176000  0.41149000  0.36249000  1
  H  H224  1  0.86087000  0.49905000  0.61627000  1
  H  H225  1  0.90817000  0.53381000  0.51623000  1
  H  H226  1  0.68175000  0.62009000  0.52043000  1
  H  H227  1  0.74309000  0.74349000  0.51501000  1
  H  H228  1  0.52755000  0.90492000  0.62352000  1
  H  H229  1  0.78082000  0.99897000  0.76859000  1
  H  H230  1  0.65050000  0.90554000  0.56122000  1
  H  H231  1  0.61699000  0.15481000  0.25419000  1
  H  H232  1  0.73957000  0.15402000  0.33594000  1
  H  H233  1  0.63878000  0.96145000  0.40319000  1
  H  H234  1  0.51797000  0.96293000  0.32381000  1
  H  H235  1  0.66034000  0.98836000  0.83094000  1
  H  H236  1  0.59349000  0.08219000  0.78135000  1
  H  H237  1  0.55667000  0.20128000  0.84532000  1
  H  H238  1  0.39709000  0.97554000  0.86040000  1
  H  H239  1  0.35196000  0.09269000  0.91697000  1
  H  H240  1  0.18386000  0.18200000  0.68140000  1
  H  H241  1  0.09956000  0.90430000  0.37810000  1
  H  H242  1  0.02650000  0.34071000  0.48229000  1
  H  H243  1  0.59395000  0.03921000  0.53437000  1
  H  H244  1  0.52305000  0.10772000  0.55822000  1
  H  H245  1  0.60686000  0.10309000  0.62363000  1
  H  H246  1  0.57361000  0.17229000  0.42713000  1
  H  H247  1  0.58670000  0.25487000  0.51033000  1
  H  H248  1  0.03422000  0.70892000  0.81176000  1
  H  H249  1  0.03856000  0.76813000  0.70233000  1
  H  H250  1  0.00140000  0.97436000  0.84028000  1
  H  H251  1  0.99480000  0.91432000  0.94676000  1
  H  H252  1  0.93284000  0.39552000  0.64670000  1
  H  H253  1  0.83375000  0.25877000  0.44047000  1
  H  H254  1  0.76176000  0.36249000  0.41149000  1
  H  H255  1  0.36087000  0.61627000  0.49905000  1
  H  H256  1  0.40817000  0.51623000  0.53381000  1
  H  H257  1  0.18175000  0.52043000  0.62009000  1
  H  H258  1  0.24309000  0.51501000  0.74349000  1
  H  H259  1  0.02755000  0.62352000  0.90492000  1
  H  H260  1  0.28082000  0.76859000  0.99897000  1
  H  H261  1  0.15050000  0.56122000  0.90554000  1
  H  H262  1  0.11699000  0.25419000  0.15481000  1
  H  H263  1  0.23957000  0.33594000  0.15402000  1
  H  H264  1  0.13878000  0.40319000  0.96145000  1
  H  H265  1  0.01797000  0.32381000  0.96293000  1
  H  H266  1  0.16034000  0.83094000  0.98836000  1
  H  H267  1  0.09349000  0.78135000  0.08219000  1
  H  H268  1  0.05667000  0.84532000  0.20128000  1
  H  H269  1  0.89709000  0.86040000  0.97554000  1
  H  H270  1  0.85196000  0.91697000  0.09269000  1
  H  H271  1  0.68386000  0.68140000  0.18200000  1
  H  H272  1  0.59956000  0.37810000  0.90430000  1
  H  H273  1  0.52650000  0.48229000  0.34071000  1
  H  H274  1  0.09395000  0.53437000  0.03921000  1
  H  H275  1  0.02305000  0.55822000  0.10772000  1
  H  H276  1  0.10686000  0.62363000  0.10309000  1
  H  H277  1  0.07361000  0.42713000  0.17229000  1
  H  H278  1  0.08670000  0.51033000  0.25487000  1
  H  H279  1  0.46578000  0.18824000  0.29108000  1
  H  H280  1  0.46144000  0.29767000  0.23187000  1
  H  H281  1  0.49860000  0.15972000  0.02564000  1
  H  H282  1  0.50520000  0.05324000  0.08568000  1
  H  H283  1  0.56716000  0.35330000  0.60448000  1
  H  H284  1  0.66625000  0.55953000  0.74123000  1
  H  H285  1  0.73824000  0.58851000  0.63751000  1
  H  H286  1  0.13913000  0.50095000  0.38373000  1
  H  H287  1  0.09183000  0.46619000  0.48377000  1
  H  H288  1  0.31825000  0.37991000  0.47957000  1
  H  H289  1  0.25691000  0.25651000  0.48499000  1
  H  H290  1  0.47245000  0.09508000  0.37648000  1
  H  H291  1  0.21918000  0.00103000  0.23141000  1
  H  H292  1  0.34950000  0.09446000  0.43878000  1
  H  H293  1  0.38301000  0.84519000  0.74581000  1
  H  H294  1  0.26043000  0.84598000  0.66406000  1
  H  H295  1  0.36122000  0.03855000  0.59681000  1
  H  H296  1  0.48203000  0.03707000  0.67619000  1
  H  H297  1  0.33966000  0.01164000  0.16906000  1
  H  H298  1  0.40651000  0.91781000  0.21865000  1
  H  H299  1  0.44333000  0.79872000  0.15468000  1
  H  H300  1  0.60291000  0.02446000  0.13960000  1
  H  H301  1  0.64804000  0.90731000  0.08303000  1
  H  H302  1  0.81614000  0.81800000  0.31860000  1
  H  H303  1  0.90044000  0.09570000  0.62190000  1
  H  H304  1  0.97350000  0.65929000  0.51771000  1
  H  H305  1  0.40605000  0.96079000  0.46563000  1
  H  H306  1  0.47695000  0.89228000  0.44178000  1
  H  H307  1  0.39314000  0.89691000  0.37637000  1
  H  H308  1  0.42639000  0.82771000  0.57287000  1
  H  H309  1  0.41330000  0.74513000  0.48967000  1
  N  N310  1  0.86530000  0.46860000  0.85020000  1
  N  N311  1  0.63470000  0.14980000  0.53140000  1
  N  N312  1  0.13470000  0.53140000  0.14980000  1
  N  N313  1  0.36530000  0.85020000  0.46860000  1
  O  O314  1  0.43410000  0.41520000  0.99960000  1
  O  O315  1  0.39660000  0.52543000  0.19657000  1
  O  O316  1  0.32250000  0.42108000  0.10032000  1
  O  O317  1  0.32320000  0.36520000  0.86460000  1
  O  O318  1  0.27440000  0.43111000  0.98709000  1
  O  O319  1  0.56210000  0.42680000  0.07440000  1
  O  O320  1  0.38010000  0.53540000  0.05060000  1
  O  O321  1  0.40750000  0.66850000  0.14230000  1
  O  O322  1  0.52940000  0.56990000  0.12090000  1
  O  O323  1  0.64970000  0.34256000  0.99224000  1
  O  O324  1  0.71320000  0.44629000  0.06271000  1
  O  O325  1  0.35280000  0.48659000  0.82121000  1
  O  O326  1  0.94930000  0.12650000  0.35330000  1
  O  O327  1  0.46970000  0.52891000  0.79369000  1
  O  O328  1  0.00990000  0.02740000  0.29240000  1
  O  O329  1  0.03730000  0.10740000  0.71580000  1
  O  O330  1  0.46620000  0.62130000  0.26570000  1
  O  O331  1  0.13840000  0.06020000  0.76300000  1
  O  O332  1  0.74070000  0.39730000  0.87870000  1
  O  O333  1  0.51320000  0.55620000  0.09960000  1
  O  O334  1  0.41420000  0.38980000  0.99260000  1
  O  O335  1  0.54520000  0.44470000  0.05450000  1
  O  O336  1  0.40750000  0.52600000  0.03660000  1
  O  O337  1  0.06590000  0.00040000  0.58480000  1
  O  O338  1  0.10340000  0.80343000  0.47457000  1
  O  O339  1  0.17750000  0.89968000  0.57892000  1
  O  O340  1  0.17680000  0.13540000  0.63480000  1
  O  O341  1  0.22560000  0.01291000  0.56889000  1
  O  O342  1  0.93790000  0.92560000  0.57320000  1
  O  O343  1  0.11990000  0.94940000  0.46460000  1
  O  O344  1  0.09250000  0.85770000  0.33150000  1
  O  O345  1  0.97060000  0.87910000  0.43010000  1
  O  O346  1  0.85030000  0.00776000  0.65744000  1
  O  O347  1  0.78680000  0.93729000  0.55371000  1
  O  O348  1  0.14720000  0.17879000  0.51341000  1
  O  O349  1  0.55070000  0.64670000  0.87350000  1
  O  O350  1  0.03030000  0.20631000  0.47109000  1
  O  O351  1  0.49010000  0.70760000  0.97260000  1
  O  O352  1  0.46270000  0.28420000  0.89260000  1
  O  O353  1  0.03380000  0.73430000  0.37870000  1
  O  O354  1  0.36160000  0.23700000  0.93980000  1
  O  O355  1  0.75930000  0.12130000  0.60270000  1
  O  O356  1  0.98680000  0.90040000  0.44380000  1
  O  O357  1  0.08580000  0.00740000  0.61020000  1
  O  O358  1  0.95480000  0.94550000  0.55530000  1
  O  O359  1  0.09250000  0.96340000  0.47400000  1
  O  O360  1  0.56590000  0.58480000  0.00040000  1
  O  O361  1  0.60340000  0.47457000  0.80343000  1
  O  O362  1  0.67750000  0.57892000  0.89968000  1
  O  O363  1  0.67680000  0.63480000  0.13540000  1
  O  O364  1  0.72560000  0.56889000  0.01291000  1
  O  O365  1  0.43790000  0.57320000  0.92560000  1
  O  O366  1  0.61990000  0.46460000  0.94940000  1
  O  O367  1  0.59250000  0.33150000  0.85770000  1
  O  O368  1  0.47060000  0.43010000  0.87910000  1
  O  O369  1  0.35030000  0.65744000  0.00776000  1
  O  O370  1  0.28680000  0.55371000  0.93729000  1
  O  O371  1  0.64720000  0.51341000  0.17879000  1
  O  O372  1  0.05070000  0.87350000  0.64670000  1
  O  O373  1  0.53030000  0.47109000  0.20631000  1
  O  O374  1  0.99010000  0.97260000  0.70760000  1
  O  O375  1  0.96270000  0.89260000  0.28420000  1
  O  O376  1  0.53380000  0.37870000  0.73430000  1
  O  O377  1  0.86160000  0.93980000  0.23700000  1
  O  O378  1  0.25930000  0.60270000  0.12130000  1
  O  O379  1  0.48680000  0.44380000  0.90040000  1
  O  O380  1  0.58580000  0.61020000  0.00740000  1
  O  O381  1  0.45480000  0.55530000  0.94550000  1
  O  O382  1  0.59250000  0.47400000  0.96340000  1
  O  O383  1  0.93410000  0.99960000  0.41520000  1
  O  O384  1  0.89660000  0.19657000  0.52543000  1
  O  O385  1  0.82250000  0.10032000  0.42108000  1
  O  O386  1  0.82320000  0.86460000  0.36520000  1
  O  O387  1  0.77440000  0.98709000  0.43111000  1
  O  O388  1  0.06210000  0.07440000  0.42680000  1
  O  O389  1  0.88010000  0.05060000  0.53540000  1
  O  O390  1  0.90750000  0.14230000  0.66850000  1
  O  O391  1  0.02940000  0.12090000  0.56990000  1
  O  O392  1  0.14970000  0.99224000  0.34256000  1
  O  O393  1  0.21320000  0.06271000  0.44629000  1
  O  O394  1  0.85280000  0.82121000  0.48659000  1
  O  O395  1  0.44930000  0.35330000  0.12650000  1
  O  O396  1  0.96970000  0.79369000  0.52891000  1
  O  O397  1  0.50990000  0.29240000  0.02740000  1
  O  O398  1  0.53730000  0.71580000  0.10740000  1
  O  O399  1  0.96620000  0.26570000  0.62130000  1
  O  O400  1  0.63840000  0.76300000  0.06020000  1
  O  O401  1  0.24070000  0.87870000  0.39730000  1
  O  O402  1  0.01320000  0.09960000  0.55620000  1
  O  O403  1  0.91420000  0.99260000  0.38980000  1
  O  O404  1  0.04520000  0.05450000  0.44470000  1
  O  O405  1  0.90750000  0.03660000  0.52600000  1
  Zr  Zr406  1  0.46643000  0.62662000  0.04128000  1
  Zr  Zr407  1  0.37064000  0.47085000  0.93307000  1
  Zr  Zr408  1  0.44742000  0.46403000  0.10783000  1
  Zr  Zr409  1  0.03357000  0.95872000  0.37338000  1
  Zr  Zr410  1  0.12936000  0.06693000  0.52915000  1
  Zr  Zr411  1  0.05258000  0.89217000  0.53597000  1
  Zr  Zr412  1  0.53357000  0.37338000  0.95872000  1
  Zr  Zr413  1  0.62936000  0.52915000  0.06693000  1
  Zr  Zr414  1  0.55258000  0.53597000  0.89217000  1
  Zr  Zr415  1  0.96643000  0.04128000  0.62662000  1
  Zr  Zr416  1  0.87064000  0.93307000  0.47085000  1
  Zr  Zr417  1  0.94742000  0.10783000  0.46403000  1
