# generated using pymatgen
data_Zr3H16(C11O8)3
_symmetry_space_group_name_H-M   'P 1'
_cell_length_a   14.67660000
_cell_length_b   14.67660000
_cell_length_c   28.00330000
_cell_angle_alpha   90.00000000
_cell_angle_beta   90.00000000
_cell_angle_gamma   90.00000000
_symmetry_Int_Tables_number   1
_chemical_formula_structural   Zr3H16(C11O8)3
_chemical_formula_sum   'Zr12 H64 C132 O96'
_cell_volume   6031.98328022
_cell_formula_units_Z   4
loop_
 _symmetry_equiv_pos_site_id
 _symmetry_equiv_pos_as_xyz
  1  'x, y, z'
loop_
 _atom_site_type_symbol
 _atom_site_label
 _atom_site_symmetry_multiplicity
 _atom_site_fract_x
 _atom_site_fract_y
 _atom_site_fract_z
 _atom_site_occupancy
  Zr  Zr0  1  0.00000000  0.00000000  0.08772000  1
  Zr  Zr1  1  0.50000000  0.50000000  0.58772000  1
  Zr  Zr2  1  0.00000000  0.00000000  0.91228000  1
  Zr  Zr3  1  0.50000000  0.50000000  0.41228000  1
  Zr  Zr4  1  0.16211000  0.05358000  0.00000000  1
  Zr  Zr5  1  0.66211000  0.55358000  0.50000000  1
  Zr  Zr6  1  0.83789000  0.94642000  0.00000000  1
  Zr  Zr7  1  0.33789000  0.44642000  0.50000000  1
  Zr  Zr8  1  0.94642000  0.16211000  0.00000000  1
  Zr  Zr9  1  0.44642000  0.66211000  0.50000000  1
  Zr  Zr10  1  0.05358000  0.83789000  0.00000000  1
  Zr  Zr11  1  0.55358000  0.33789000  0.50000000  1
  H  H12  1  0.20400000  0.96670000  0.19730000  1
  H  H13  1  0.32260000  0.94310000  0.25180000  1
  H  H14  1  0.48850000  0.10190000  0.17140000  1
  H  H15  1  0.36990000  0.12540000  0.11690000  1
  H  H16  1  0.70400000  0.46670000  0.69730000  1
  H  H17  1  0.82260000  0.44310000  0.75180000  1
  H  H18  1  0.98850000  0.60190000  0.67140000  1
  H  H19  1  0.86990000  0.62540000  0.61690000  1
  H  H20  1  0.79600000  0.03330000  0.19730000  1
  H  H21  1  0.67740000  0.05690000  0.25180000  1
  H  H22  1  0.51150000  0.89810000  0.17140000  1
  H  H23  1  0.63010000  0.87460000  0.11690000  1
  H  H24  1  0.29600000  0.53330000  0.69730000  1
  H  H25  1  0.17740000  0.55690000  0.75180000  1
  H  H26  1  0.01150000  0.39810000  0.67140000  1
  H  H27  1  0.13010000  0.37460000  0.61690000  1
  H  H28  1  0.03330000  0.20400000  0.19730000  1
  H  H29  1  0.05690000  0.32260000  0.25180000  1
  H  H30  1  0.89810000  0.48850000  0.17140000  1
  H  H31  1  0.87460000  0.36990000  0.11690000  1
  H  H32  1  0.53330000  0.70400000  0.69730000  1
  H  H33  1  0.55690000  0.82260000  0.75180000  1
  H  H34  1  0.39810000  0.98850000  0.67140000  1
  H  H35  1  0.37460000  0.86990000  0.61690000  1
  H  H36  1  0.96670000  0.79600000  0.19730000  1
  H  H37  1  0.94310000  0.67740000  0.25180000  1
  H  H38  1  0.10190000  0.51150000  0.17140000  1
  H  H39  1  0.12540000  0.63010000  0.11690000  1
  H  H40  1  0.46670000  0.29600000  0.69730000  1
  H  H41  1  0.44310000  0.17740000  0.75180000  1
  H  H42  1  0.60190000  0.01150000  0.67140000  1
  H  H43  1  0.62540000  0.13010000  0.61690000  1
  H  H44  1  0.79600000  0.03330000  0.80270000  1
  H  H45  1  0.67740000  0.05690000  0.74820000  1
  H  H46  1  0.51150000  0.89810000  0.82860000  1
  H  H47  1  0.63010000  0.87460000  0.88310000  1
  H  H48  1  0.29600000  0.53330000  0.30270000  1
  H  H49  1  0.17740000  0.55690000  0.24820000  1
  H  H50  1  0.01150000  0.39810000  0.32860000  1
  H  H51  1  0.13010000  0.37460000  0.38310000  1
  H  H52  1  0.20400000  0.96670000  0.80270000  1
  H  H53  1  0.32260000  0.94310000  0.74820000  1
  H  H54  1  0.48850000  0.10190000  0.82860000  1
  H  H55  1  0.36990000  0.12540000  0.88310000  1
  H  H56  1  0.70400000  0.46670000  0.30270000  1
  H  H57  1  0.82260000  0.44310000  0.24820000  1
  H  H58  1  0.98850000  0.60190000  0.32860000  1
  H  H59  1  0.86990000  0.62540000  0.38310000  1
  H  H60  1  0.96670000  0.79600000  0.80270000  1
  H  H61  1  0.94310000  0.67740000  0.74820000  1
  H  H62  1  0.10190000  0.51150000  0.82860000  1
  H  H63  1  0.12540000  0.63010000  0.88310000  1
  H  H64  1  0.46670000  0.29600000  0.30270000  1
  H  H65  1  0.44310000  0.17740000  0.24820000  1
  H  H66  1  0.60190000  0.01150000  0.32860000  1
  H  H67  1  0.62540000  0.13010000  0.38310000  1
  H  H68  1  0.03330000  0.20400000  0.80270000  1
  H  H69  1  0.05690000  0.32260000  0.74820000  1
  H  H70  1  0.89810000  0.48850000  0.82860000  1
  H  H71  1  0.87460000  0.36990000  0.88310000  1
  H  H72  1  0.53330000  0.70400000  0.30270000  1
  H  H73  1  0.55690000  0.82260000  0.24820000  1
  H  H74  1  0.39810000  0.98850000  0.32860000  1
  H  H75  1  0.37460000  0.86990000  0.38310000  1
  C  C76  1  0.27580000  0.04820000  0.15202000  1
  C  C77  1  0.26173000  0.99410000  0.19207000  1
  C  C78  1  0.33217000  0.98010000  0.22443000  1
  C  C79  1  0.41668000  0.02030000  0.21674000  1
  C  C80  1  0.43075000  0.07440000  0.17668000  1
  C  C81  1  0.36031000  0.08840000  0.14432000  1
  C  C82  1  0.20280000  0.05350000  0.11455000  1
  C  C83  1  0.22500000  0.23900000  0.03720000  1
  C  C84  1  0.77580000  0.54820000  0.65202000  1
  C  C85  1  0.76173000  0.49410000  0.69207000  1
  C  C86  1  0.83217000  0.48010000  0.72443000  1
  C  C87  1  0.91668000  0.52030000  0.71674000  1
  C  C88  1  0.93075000  0.57440000  0.67668000  1
  C  C89  1  0.86031000  0.58840000  0.64432000  1
  C  C90  1  0.70280000  0.55350000  0.61455000  1
  C  C91  1  0.72500000  0.73900000  0.53720000  1
  C  C92  1  0.72420000  0.95180000  0.15202000  1
  C  C93  1  0.73827000  0.00590000  0.19207000  1
  C  C94  1  0.66783000  0.01990000  0.22443000  1
  C  C95  1  0.58332000  0.97970000  0.21674000  1
  C  C96  1  0.56925000  0.92560000  0.17668000  1
  C  C97  1  0.63969000  0.91160000  0.14432000  1
  C  C98  1  0.79720000  0.94650000  0.11455000  1
  C  C99  1  0.77500000  0.76100000  0.03720000  1
  C  C100  1  0.22420000  0.45180000  0.65202000  1
  C  C101  1  0.23827000  0.50590000  0.69207000  1
  C  C102  1  0.16783000  0.51990000  0.72443000  1
  C  C103  1  0.08332000  0.47970000  0.71674000  1
  C  C104  1  0.06925000  0.42560000  0.67668000  1
  C  C105  1  0.13969000  0.41160000  0.64432000  1
  C  C106  1  0.29720000  0.44650000  0.61455000  1
  C  C107  1  0.95180000  0.27580000  0.15202000  1
  C  C108  1  0.00590000  0.26173000  0.19207000  1
  C  C109  1  0.01990000  0.33217000  0.22443000  1
  C  C110  1  0.97970000  0.41668000  0.21674000  1
  C  C111  1  0.92560000  0.43075000  0.17668000  1
  C  C112  1  0.91160000  0.36031000  0.14432000  1
  C  C113  1  0.94650000  0.20280000  0.11455000  1
  C  C114  1  0.76100000  0.22500000  0.03720000  1
  C  C115  1  0.45180000  0.77580000  0.65202000  1
  C  C116  1  0.50590000  0.76173000  0.69207000  1
  C  C117  1  0.51990000  0.83217000  0.72443000  1
  C  C118  1  0.47970000  0.91668000  0.71674000  1
  C  C119  1  0.42560000  0.93075000  0.67668000  1
  C  C120  1  0.41160000  0.86031000  0.64432000  1
  C  C121  1  0.44650000  0.70280000  0.61455000  1
  C  C122  1  0.26100000  0.72500000  0.53720000  1
  C  C123  1  0.04820000  0.72420000  0.15202000  1
  C  C124  1  0.99410000  0.73827000  0.19207000  1
  C  C125  1  0.98010000  0.66783000  0.22443000  1
  C  C126  1  0.02030000  0.58332000  0.21674000  1
  C  C127  1  0.07440000  0.56925000  0.17668000  1
  C  C128  1  0.08840000  0.63969000  0.14432000  1
  C  C129  1  0.05350000  0.79720000  0.11455000  1
  C  C130  1  0.54820000  0.22420000  0.65202000  1
  C  C131  1  0.49410000  0.23827000  0.69207000  1
  C  C132  1  0.48010000  0.16783000  0.72443000  1
  C  C133  1  0.52030000  0.08332000  0.71674000  1
  C  C134  1  0.57440000  0.06925000  0.67668000  1
  C  C135  1  0.58840000  0.13969000  0.64432000  1
  C  C136  1  0.55350000  0.29720000  0.61455000  1
  C  C137  1  0.44400000  0.14780000  0.47690000  1
  C  C138  1  0.72420000  0.95180000  0.84798000  1
  C  C139  1  0.73827000  0.00590000  0.80793000  1
  C  C140  1  0.66783000  0.01990000  0.77557000  1
  C  C141  1  0.58332000  0.97970000  0.78326000  1
  C  C142  1  0.56925000  0.92560000  0.82332000  1
  C  C143  1  0.63969000  0.91160000  0.85568000  1
  C  C144  1  0.79720000  0.94650000  0.88545000  1
  C  C145  1  0.64780000  0.05600000  0.02310000  1
  C  C146  1  0.22420000  0.45180000  0.34798000  1
  C  C147  1  0.23827000  0.50590000  0.30793000  1
  C  C148  1  0.16783000  0.51990000  0.27557000  1
  C  C149  1  0.08332000  0.47970000  0.28326000  1
  C  C150  1  0.06925000  0.42560000  0.32332000  1
  C  C151  1  0.13969000  0.41160000  0.35568000  1
  C  C152  1  0.29720000  0.44650000  0.38545000  1
  C  C153  1  0.14780000  0.55600000  0.52310000  1
  C  C154  1  0.27500000  0.26100000  0.46280000  1
  C  C155  1  0.27580000  0.04820000  0.84798000  1
  C  C156  1  0.26173000  0.99410000  0.80793000  1
  C  C157  1  0.33217000  0.98010000  0.77557000  1
  C  C158  1  0.41668000  0.02030000  0.78326000  1
  C  C159  1  0.43075000  0.07440000  0.82332000  1
  C  C160  1  0.36031000  0.08840000  0.85568000  1
  C  C161  1  0.20280000  0.05350000  0.88545000  1
  C  C162  1  0.35220000  0.94400000  0.02310000  1
  C  C163  1  0.77580000  0.54820000  0.34798000  1
  C  C164  1  0.76173000  0.49410000  0.30793000  1
  C  C165  1  0.83217000  0.48010000  0.27557000  1
  C  C166  1  0.91668000  0.52030000  0.28326000  1
  C  C167  1  0.93075000  0.57440000  0.32332000  1
  C  C168  1  0.86031000  0.58840000  0.35568000  1
  C  C169  1  0.70280000  0.55350000  0.38545000  1
  C  C170  1  0.85220000  0.44400000  0.52310000  1
  C  C171  1  0.04820000  0.72420000  0.84798000  1
  C  C172  1  0.99410000  0.73827000  0.80793000  1
  C  C173  1  0.98010000  0.66783000  0.77557000  1
  C  C174  1  0.02030000  0.58332000  0.78326000  1
  C  C175  1  0.07440000  0.56925000  0.82332000  1
  C  C176  1  0.08840000  0.63969000  0.85568000  1
  C  C177  1  0.05350000  0.79720000  0.88545000  1
  C  C178  1  0.94400000  0.64780000  0.02310000  1
  C  C179  1  0.23900000  0.77500000  0.96280000  1
  C  C180  1  0.54820000  0.22420000  0.34798000  1
  C  C181  1  0.49410000  0.23827000  0.30793000  1
  C  C182  1  0.48010000  0.16783000  0.27557000  1
  C  C183  1  0.52030000  0.08332000  0.28326000  1
  C  C184  1  0.57440000  0.06925000  0.32332000  1
  C  C185  1  0.58840000  0.13969000  0.35568000  1
  C  C186  1  0.55350000  0.29720000  0.38545000  1
  C  C187  1  0.73900000  0.27500000  0.46280000  1
  C  C188  1  0.95180000  0.27580000  0.84798000  1
  C  C189  1  0.00590000  0.26173000  0.80793000  1
  C  C190  1  0.01990000  0.33217000  0.77557000  1
  C  C191  1  0.97970000  0.41668000  0.78326000  1
  C  C192  1  0.92560000  0.43075000  0.82332000  1
  C  C193  1  0.91160000  0.36031000  0.85568000  1
  C  C194  1  0.94650000  0.20280000  0.88545000  1
  C  C195  1  0.05600000  0.35220000  0.02310000  1
  C  C196  1  0.45180000  0.77580000  0.34798000  1
  C  C197  1  0.50590000  0.76173000  0.30793000  1
  C  C198  1  0.51990000  0.83217000  0.27557000  1
  C  C199  1  0.47970000  0.91668000  0.28326000  1
  C  C200  1  0.42560000  0.93075000  0.32332000  1
  C  C201  1  0.41160000  0.86031000  0.35568000  1
  C  C202  1  0.44650000  0.70280000  0.38545000  1
  C  C203  1  0.55600000  0.85220000  0.52310000  1
  C  C204  1  0.50000000  0.00000000  0.25000000  1
  C  C205  1  0.00000000  0.50000000  0.25000000  1
  C  C206  1  0.50000000  0.00000000  0.75000000  1
  C  C207  1  0.00000000  0.50000000  0.75000000  1
  O  O208  1  0.12280000  0.03610000  0.12801000  1
  O  O209  1  0.87600000  0.06290000  0.04740000  1
  O  O210  1  0.22650000  0.07310000  0.07310000  1
  O  O211  1  0.91080000  0.04550000  0.03700000  1
  O  O212  1  0.18290000  0.25730000  0.07610000  1
  O  O213  1  0.62280000  0.53610000  0.62801000  1
  O  O214  1  0.37600000  0.56290000  0.54740000  1
  O  O215  1  0.72650000  0.57310000  0.57310000  1
  O  O216  1  0.41080000  0.54550000  0.53700000  1
  O  O217  1  0.68290000  0.75730000  0.57610000  1
  O  O218  1  0.87720000  0.96390000  0.12801000  1
  O  O219  1  0.12400000  0.93710000  0.04740000  1
  O  O220  1  0.77350000  0.92690000  0.07310000  1
  O  O221  1  0.08920000  0.95450000  0.03700000  1
  O  O222  1  0.81710000  0.74270000  0.07610000  1
  O  O223  1  0.37720000  0.46390000  0.62801000  1
  O  O224  1  0.62400000  0.43710000  0.54740000  1
  O  O225  1  0.27350000  0.42690000  0.57310000  1
  O  O226  1  0.58920000  0.45450000  0.53700000  1
  O  O227  1  0.96390000  0.12280000  0.12801000  1
  O  O228  1  0.93710000  0.87600000  0.04740000  1
  O  O229  1  0.92690000  0.22650000  0.07310000  1
  O  O230  1  0.95450000  0.91080000  0.03700000  1
  O  O231  1  0.74270000  0.18290000  0.07610000  1
  O  O232  1  0.46390000  0.62280000  0.62801000  1
  O  O233  1  0.43710000  0.37600000  0.54740000  1
  O  O234  1  0.42690000  0.72650000  0.57310000  1
  O  O235  1  0.45450000  0.41080000  0.53700000  1
  O  O236  1  0.24270000  0.68290000  0.57610000  1
  O  O237  1  0.03610000  0.87720000  0.12801000  1
  O  O238  1  0.06290000  0.12400000  0.04740000  1
  O  O239  1  0.07310000  0.77350000  0.07310000  1
  O  O240  1  0.04550000  0.08920000  0.03700000  1
  O  O241  1  0.53610000  0.37720000  0.62801000  1
  O  O242  1  0.56290000  0.62400000  0.54740000  1
  O  O243  1  0.57310000  0.27350000  0.57310000  1
  O  O244  1  0.41600000  0.07240000  0.49220000  1
  O  O245  1  0.54550000  0.58920000  0.53700000  1
  O  O246  1  0.87720000  0.96390000  0.87199000  1
  O  O247  1  0.12400000  0.93710000  0.95260000  1
  O  O248  1  0.77350000  0.92690000  0.92690000  1
  O  O249  1  0.57240000  0.08400000  0.00780000  1
  O  O250  1  0.08920000  0.95450000  0.96300000  1
  O  O251  1  0.37720000  0.46390000  0.37199000  1
  O  O252  1  0.62400000  0.43710000  0.45260000  1
  O  O253  1  0.27350000  0.42690000  0.42690000  1
  O  O254  1  0.07240000  0.58400000  0.50780000  1
  O  O255  1  0.58920000  0.45450000  0.46300000  1
  O  O256  1  0.31710000  0.24270000  0.42390000  1
  O  O257  1  0.12280000  0.03610000  0.87199000  1
  O  O258  1  0.87600000  0.06290000  0.95260000  1
  O  O259  1  0.22650000  0.07310000  0.92690000  1
  O  O260  1  0.42760000  0.91600000  0.00780000  1
  O  O261  1  0.91080000  0.04550000  0.96300000  1
  O  O262  1  0.62280000  0.53610000  0.37199000  1
  O  O263  1  0.37600000  0.56290000  0.45260000  1
  O  O264  1  0.72650000  0.57310000  0.42690000  1
  O  O265  1  0.92760000  0.41600000  0.50780000  1
  O  O266  1  0.41080000  0.54550000  0.46300000  1
  O  O267  1  0.03610000  0.87720000  0.87199000  1
  O  O268  1  0.06290000  0.12400000  0.95260000  1
  O  O269  1  0.07310000  0.77350000  0.92690000  1
  O  O270  1  0.91600000  0.57240000  0.00780000  1
  O  O271  1  0.04550000  0.08920000  0.96300000  1
  O  O272  1  0.25730000  0.81710000  0.92390000  1
  O  O273  1  0.53610000  0.37720000  0.37199000  1
  O  O274  1  0.56290000  0.62400000  0.45260000  1
  O  O275  1  0.57310000  0.27350000  0.42690000  1
  O  O276  1  0.54550000  0.58920000  0.46300000  1
  O  O277  1  0.75730000  0.31710000  0.42390000  1
  O  O278  1  0.96390000  0.12280000  0.87199000  1
  O  O279  1  0.93710000  0.87600000  0.95260000  1
  O  O280  1  0.92690000  0.22650000  0.92690000  1
  O  O281  1  0.08400000  0.42760000  0.00780000  1
  O  O282  1  0.95450000  0.91080000  0.96300000  1
  O  O283  1  0.46390000  0.62280000  0.37199000  1
  O  O284  1  0.43710000  0.37600000  0.45260000  1
  O  O285  1  0.42690000  0.72650000  0.42690000  1
  O  O286  1  0.58400000  0.92760000  0.50780000  1
  O  O287  1  0.45450000  0.41080000  0.46300000  1
  O  O288  1  0.29310000  0.97900000  0.00000000  1
  O  O289  1  0.22570000  0.18850000  0.00000000  1
  O  O290  1  0.79310000  0.47900000  0.50000000  1
  O  O291  1  0.72570000  0.68850000  0.50000000  1
  O  O292  1  0.70690000  0.02100000  0.00000000  1
  O  O293  1  0.77430000  0.81150000  0.00000000  1
  O  O294  1  0.20690000  0.52100000  0.50000000  1
  O  O295  1  0.27430000  0.31150000  0.50000000  1
  O  O296  1  0.02100000  0.29310000  0.00000000  1
  O  O297  1  0.81150000  0.22570000  0.00000000  1
  O  O298  1  0.52100000  0.79310000  0.50000000  1
  O  O299  1  0.31150000  0.72570000  0.50000000  1
  O  O300  1  0.97900000  0.70690000  0.00000000  1
  O  O301  1  0.18850000  0.77430000  0.00000000  1
  O  O302  1  0.47900000  0.20690000  0.50000000  1
  O  O303  1  0.68850000  0.27430000  0.50000000  1
