# generated using pymatgen
data_Zr3H3C9O11
_symmetry_space_group_name_H-M   'P 1'
_cell_length_a   24.80276030
_cell_length_b   24.80276030
_cell_length_c   24.80276030
_cell_angle_alpha   60.00000000
_cell_angle_beta   60.00000000
_cell_angle_gamma   60.00000000
_symmetry_Int_Tables_number   1
_chemical_formula_structural   Zr3H3C9O11
_chemical_formula_sum   'Zr24 H24 C72 O88'
_cell_volume   10789.09583169
_cell_formula_units_Z   8
loop_
 _symmetry_equiv_pos_site_id
 _symmetry_equiv_pos_as_xyz
  1  'x, y, z'
loop_
 _atom_site_type_symbol
 _atom_site_label
 _atom_site_symmetry_multiplicity
 _atom_site_fract_x
 _atom_site_fract_y
 _atom_site_fract_z
 _atom_site_occupancy
  C  C0  1  0.31885000  0.11857000  0.11857000  1
  C  C1  1  0.25306000  0.15566000  0.15566000  1
  C  C2  1  0.22062000  0.22062000  0.12324000  1
  C  C3  1  0.88143000  0.68115000  0.05599000  1
  C  C4  1  0.84434000  0.74694000  0.06438000  1
  C  C5  1  0.87676000  0.77938000  0.06448000  1
  C  C6  1  0.94401000  0.11857000  0.11857000  1
  C  C7  1  0.93562000  0.15566000  0.15566000  1
  C  C8  1  0.93552000  0.12324000  0.22062000  1
  C  C9  1  0.88143000  0.05599000  0.68115000  1
  C  C10  1  0.84434000  0.06438000  0.74694000  1
  C  C11  1  0.77938000  0.06448000  0.77938000  1
  C  C12  1  0.11857000  0.31885000  0.94401000  1
  C  C13  1  0.15566000  0.25306000  0.93562000  1
  C  C14  1  0.22062000  0.22062000  0.93552000  1
  C  C15  1  0.05599000  0.88143000  0.88143000  1
  C  C16  1  0.06438000  0.84434000  0.84434000  1
  C  C17  1  0.06448000  0.77938000  0.87676000  1
  C  C18  1  0.11857000  0.94401000  0.31885000  1
  C  C19  1  0.15566000  0.93562000  0.25306000  1
  C  C20  1  0.12324000  0.93552000  0.22062000  1
  C  C21  1  0.68115000  0.88143000  0.88143000  1
  C  C22  1  0.74694000  0.84434000  0.84434000  1
  C  C23  1  0.77938000  0.87676000  0.77938000  1
  C  C24  1  0.11857000  0.11857000  0.31885000  1
  C  C25  1  0.15566000  0.15566000  0.25306000  1
  C  C26  1  0.22062000  0.12324000  0.22062000  1
  C  C27  1  0.68115000  0.88143000  0.05599000  1
  C  C28  1  0.74694000  0.84434000  0.06438000  1
  C  C29  1  0.77938000  0.77938000  0.06448000  1
  C  C30  1  0.94401000  0.31885000  0.11857000  1
  C  C31  1  0.93562000  0.25306000  0.15566000  1
  C  C32  1  0.93552000  0.22062000  0.12324000  1
  C  C33  1  0.88143000  0.05599000  0.88143000  1
  C  C34  1  0.84434000  0.06438000  0.84434000  1
  C  C35  1  0.87676000  0.06448000  0.77938000  1
  C  C36  1  0.11857000  0.11857000  0.94401000  1
  C  C37  1  0.15566000  0.15566000  0.93562000  1
  C  C38  1  0.12324000  0.22062000  0.93552000  1
  C  C39  1  0.05599000  0.88143000  0.68115000  1
  C  C40  1  0.06438000  0.84434000  0.74694000  1
  C  C41  1  0.06448000  0.87676000  0.77938000  1
  C  C42  1  0.31885000  0.94401000  0.11857000  1
  C  C43  1  0.25306000  0.93562000  0.15566000  1
  C  C44  1  0.22062000  0.93552000  0.22062000  1
  C  C45  1  0.88143000  0.68115000  0.88143000  1
  C  C46  1  0.84434000  0.74694000  0.84434000  1
  C  C47  1  0.77938000  0.77938000  0.87676000  1
  C  C48  1  0.11857000  0.31885000  0.11857000  1
  C  C49  1  0.15566000  0.25306000  0.15566000  1
  C  C50  1  0.12324000  0.22062000  0.22062000  1
  C  C51  1  0.31885000  0.11857000  0.94401000  1
  C  C52  1  0.25306000  0.15566000  0.93562000  1
  C  C53  1  0.22062000  0.12324000  0.93552000  1
  C  C54  1  0.05599000  0.68115000  0.88143000  1
  C  C55  1  0.06438000  0.74694000  0.84434000  1
  C  C56  1  0.06448000  0.77938000  0.77938000  1
  C  C57  1  0.11857000  0.94401000  0.11857000  1
  C  C58  1  0.15566000  0.93562000  0.15566000  1
  C  C59  1  0.22062000  0.93552000  0.12324000  1
  C  C60  1  0.88143000  0.88143000  0.68115000  1
  C  C61  1  0.84434000  0.84434000  0.74694000  1
  C  C62  1  0.87676000  0.77938000  0.77938000  1
  C  C63  1  0.94401000  0.11857000  0.31885000  1
  C  C64  1  0.93562000  0.15566000  0.25306000  1
  C  C65  1  0.93552000  0.22062000  0.22062000  1
  C  C66  1  0.68115000  0.05599000  0.88143000  1
  C  C67  1  0.74694000  0.06438000  0.84434000  1
  C  C68  1  0.77938000  0.06448000  0.87676000  1
  C  C69  1  0.88143000  0.88143000  0.05599000  1
  C  C70  1  0.84434000  0.84434000  0.06438000  1
  C  C71  1  0.77938000  0.87676000  0.06448000  1
  H  H72  1  0.24280000  0.24280000  0.07900000  1
  H  H73  1  0.92100000  0.75720000  0.06460000  1
  H  H74  1  0.93540000  0.07900000  0.24280000  1
  H  H75  1  0.75720000  0.06460000  0.75720000  1
  H  H76  1  0.24280000  0.24280000  0.93540000  1
  H  H77  1  0.06460000  0.75720000  0.92100000  1
  H  H78  1  0.07900000  0.93540000  0.24280000  1
  H  H79  1  0.75720000  0.92100000  0.75720000  1
  H  H80  1  0.24280000  0.07900000  0.24280000  1
  H  H81  1  0.75720000  0.75720000  0.06460000  1
  H  H82  1  0.93540000  0.24280000  0.07900000  1
  H  H83  1  0.92100000  0.06460000  0.75720000  1
  H  H84  1  0.07900000  0.24280000  0.93540000  1
  H  H85  1  0.06460000  0.92100000  0.75720000  1
  H  H86  1  0.24280000  0.93540000  0.24280000  1
  H  H87  1  0.75720000  0.75720000  0.92100000  1
  H  H88  1  0.07900000  0.24280000  0.24280000  1
  H  H89  1  0.24280000  0.07900000  0.93540000  1
  H  H90  1  0.06460000  0.75720000  0.75720000  1
  H  H91  1  0.24280000  0.93540000  0.07900000  1
  H  H92  1  0.92100000  0.75720000  0.75720000  1
  H  H93  1  0.93540000  0.24280000  0.24280000  1
  H  H94  1  0.75720000  0.06460000  0.92100000  1
  H  H95  1  0.75720000  0.92100000  0.06460000  1
  O  O96  1  0.34380000  0.05888000  0.14940000  1
  O  O97  1  0.53216000  0.94794000  0.07196000  1
  O  O98  1  0.41561000  0.02813000  0.02813000  1
  O  O99  1  0.38210000  0.03930000  0.03930000  1
  O  O100  1  0.85060000  0.65620000  0.05208000  1
  O  O101  1  0.92804000  0.46784000  0.05206000  1
  O  O102  1  0.97187000  0.58439000  0.97187000  1
  O  O103  1  0.96070000  0.61790000  0.96070000  1
  O  O104  1  0.94792000  0.14940000  0.05888000  1
  O  O105  1  0.94794000  0.07196000  0.94794000  1
  O  O106  1  0.02813000  0.02813000  0.02813000  1
  O  O107  1  0.03930000  0.03930000  0.03930000  1
  O  O108  1  0.94112000  0.05208000  0.65620000  1
  O  O109  1  0.05206000  0.05206000  0.46784000  1
  O  O110  1  0.97187000  0.97187000  0.58439000  1
  O  O111  1  0.96070000  0.96070000  0.61790000  1
  O  O112  1  0.05888000  0.34380000  0.94792000  1
  O  O113  1  0.94794000  0.53216000  0.94794000  1
  O  O114  1  0.02813000  0.41561000  0.02813000  1
  O  O115  1  0.03930000  0.38210000  0.03930000  1
  O  O116  1  0.05208000  0.94112000  0.85060000  1
  O  O117  1  0.05206000  0.05206000  0.92804000  1
  O  O118  1  0.97187000  0.97187000  0.97187000  1
  O  O119  1  0.96070000  0.96070000  0.96070000  1
  O  O120  1  0.14940000  0.94792000  0.34380000  1
  O  O121  1  0.07196000  0.94794000  0.53216000  1
  O  O122  1  0.02813000  0.02813000  0.41561000  1
  O  O123  1  0.03930000  0.03930000  0.38210000  1
  O  O124  1  0.65620000  0.85060000  0.94112000  1
  O  O125  1  0.46784000  0.92804000  0.05206000  1
  O  O126  1  0.58439000  0.97187000  0.97187000  1
  O  O127  1  0.61790000  0.96070000  0.96070000  1
  O  O128  1  0.05888000  0.14940000  0.34380000  1
  O  O129  1  0.94794000  0.07196000  0.53216000  1
  O  O130  1  0.65620000  0.94112000  0.05208000  1
  O  O131  1  0.46784000  0.05206000  0.05206000  1
  O  O132  1  0.94792000  0.34380000  0.14940000  1
  O  O133  1  0.94794000  0.53216000  0.07196000  1
  O  O134  1  0.85060000  0.05208000  0.94112000  1
  O  O135  1  0.92804000  0.05206000  0.05206000  1
  O  O136  1  0.14940000  0.05888000  0.94792000  1
  O  O137  1  0.07196000  0.94794000  0.94794000  1
  O  O138  1  0.05208000  0.85060000  0.65620000  1
  O  O139  1  0.05206000  0.92804000  0.46784000  1
  O  O140  1  0.34380000  0.94792000  0.05888000  1
  O  O141  1  0.53216000  0.94794000  0.94794000  1
  O  O142  1  0.94112000  0.65620000  0.85060000  1
  O  O143  1  0.05206000  0.46784000  0.92804000  1
  O  O144  1  0.14940000  0.34380000  0.05888000  1
  O  O145  1  0.07196000  0.53216000  0.94794000  1
  O  O146  1  0.34380000  0.14940000  0.94792000  1
  O  O147  1  0.53216000  0.07196000  0.94794000  1
  O  O148  1  0.05208000  0.65620000  0.94112000  1
  O  O149  1  0.05206000  0.46784000  0.05206000  1
  O  O150  1  0.05888000  0.94792000  0.14940000  1
  O  O151  1  0.94794000  0.94794000  0.07196000  1
  O  O152  1  0.85060000  0.94112000  0.65620000  1
  O  O153  1  0.92804000  0.05206000  0.46784000  1
  O  O154  1  0.94792000  0.05888000  0.34380000  1
  O  O155  1  0.94794000  0.94794000  0.53216000  1
  O  O156  1  0.65620000  0.05208000  0.85060000  1
  O  O157  1  0.46784000  0.05206000  0.92804000  1
  O  O158  1  0.94112000  0.85060000  0.05208000  1
  O  O159  1  0.05206000  0.92804000  0.05206000  1
  O  O160  1  0.65620000  0.94112000  0.85060000  1
  O  O161  1  0.14940000  0.34380000  0.94792000  1
  O  O162  1  0.05208000  0.85060000  0.94112000  1
  O  O163  1  0.05888000  0.94792000  0.34380000  1
  O  O164  1  0.94112000  0.65620000  0.05208000  1
  O  O165  1  0.94792000  0.05888000  0.14940000  1
  O  O166  1  0.85060000  0.05208000  0.65620000  1
  O  O167  1  0.34380000  0.14940000  0.05888000  1
  O  O168  1  0.94112000  0.85060000  0.65620000  1
  O  O169  1  0.34380000  0.05888000  0.94792000  1
  O  O170  1  0.05208000  0.65620000  0.85060000  1
  O  O171  1  0.14940000  0.94792000  0.05888000  1
  O  O172  1  0.85060000  0.94112000  0.05208000  1
  O  O173  1  0.94792000  0.14940000  0.34380000  1
  O  O174  1  0.65620000  0.05208000  0.94112000  1
  O  O175  1  0.05888000  0.34380000  0.14940000  1
  O  O176  1  0.85060000  0.65620000  0.94112000  1
  O  O177  1  0.65620000  0.85060000  0.05208000  1
  O  O178  1  0.94792000  0.34380000  0.05888000  1
  O  O179  1  0.94112000  0.05208000  0.85060000  1
  O  O180  1  0.14940000  0.05888000  0.34380000  1
  O  O181  1  0.05208000  0.94112000  0.65620000  1
  O  O182  1  0.34380000  0.94792000  0.14940000  1
  O  O183  1  0.05888000  0.14940000  0.94792000  1
  Zr  Zr184  1  0.42931000  0.97661000  0.11747000  1
  Zr  Zr185  1  0.88253000  0.57069000  0.02339000  1
  Zr  Zr186  1  0.97661000  0.11747000  0.97661000  1
  Zr  Zr187  1  0.02339000  0.02339000  0.57069000  1
  Zr  Zr188  1  0.97661000  0.42931000  0.97661000  1
  Zr  Zr189  1  0.02339000  0.02339000  0.88253000  1
  Zr  Zr190  1  0.11747000  0.97661000  0.42931000  1
  Zr  Zr191  1  0.57069000  0.88253000  0.02339000  1
  Zr  Zr192  1  0.97661000  0.11747000  0.42931000  1
  Zr  Zr193  1  0.57069000  0.02339000  0.02339000  1
  Zr  Zr194  1  0.97661000  0.42931000  0.11747000  1
  Zr  Zr195  1  0.88253000  0.02339000  0.02339000  1
  Zr  Zr196  1  0.11747000  0.97661000  0.97661000  1
  Zr  Zr197  1  0.02339000  0.88253000  0.57069000  1
  Zr  Zr198  1  0.42931000  0.97661000  0.97661000  1
  Zr  Zr199  1  0.02339000  0.57069000  0.88253000  1
  Zr  Zr200  1  0.11747000  0.42931000  0.97661000  1
  Zr  Zr201  1  0.42931000  0.11747000  0.97661000  1
  Zr  Zr202  1  0.02339000  0.57069000  0.02339000  1
  Zr  Zr203  1  0.97661000  0.97661000  0.11747000  1
  Zr  Zr204  1  0.88253000  0.02339000  0.57069000  1
  Zr  Zr205  1  0.97661000  0.97661000  0.42931000  1
  Zr  Zr206  1  0.57069000  0.02339000  0.88253000  1
  Zr  Zr207  1  0.02339000  0.88253000  0.02339000  1
