# generated using pymatgen
data_Zr6H9C31N11O36
_symmetry_space_group_name_H-M   'P 1'
_cell_length_a   19.06974759
_cell_length_b   19.06974759
_cell_length_c   23.53349532
_cell_angle_alpha   112.15416067
_cell_angle_beta   112.15416067
_cell_angle_gamma   93.97153999
_symmetry_Int_Tables_number   1
_chemical_formula_structural   Zr6H9C31N11O36
_chemical_formula_sum   'Zr24 H36 C124 N44 O144'
_cell_volume   7114.51746861
_cell_formula_units_Z   4
loop_
 _symmetry_equiv_pos_site_id
 _symmetry_equiv_pos_as_xyz
  1  'x, y, z'
loop_
 _atom_site_type_symbol
 _atom_site_label
 _atom_site_symmetry_multiplicity
 _atom_site_fract_x
 _atom_site_fract_y
 _atom_site_fract_z
 _atom_site_occupancy
  C  C0  1  0.20050000  0.64130000  0.12340000  1
  C  C1  1  0.22690000  0.72790000  0.16440000  1
  C  C2  1  0.37680000  0.50700000  0.12620000  1
  C  C3  1  0.30590000  0.24930000  0.99760000  1
  C  C4  1  0.27510000  0.45010000  0.87880000  1
  C  C5  1  0.87130000  0.27310000  0.87340000  1
  C  C6  1  0.27230000  0.76950000  0.23400000  1
  C  C7  1  0.05820000  0.12680000  0.87600000  1
  C  C8  1  0.46084000  0.53184000  0.16928000  1
  C  C9  1  0.36550000  0.20350000  0.99620000  1
  C  C10  1  0.78560000  0.25260000  0.82920000  1
  C  C11  1  0.27890000  0.84530000  0.24460000  1
  C  C12  1  0.03450000  0.04150000  0.83420000  1
  C  C13  1  0.08150000  0.19830000  0.10120000  1
  C  C14  1  0.50749000  0.56369000  0.24078000  1
  C  C15  1  0.37730000  0.13790000  0.00780000  1
  C  C16  1  0.74440000  0.22580000  0.76120000  1
  C  C17  1  0.31750000  0.91990000  0.30940000  1
  C  C18  1  0.99470000  0.99830000  0.76440000  1
  C  C19  1  0.58646000  0.56606000  0.25252000  1
  C  C20  1  0.44110000  0.12230000  0.99780000  1
  C  C21  1  0.66790000  0.22330000  0.75220000  1
  C  C22  1  0.98780000  0.92140000  0.75240000  1
  C  C23  1  0.65610000  0.58750000  0.31280000  1
  C  C24  1  0.48440000  0.06100000  0.00020000  1
  C  C25  1  0.59510000  0.20090000  0.68780000  1
  C  C26  1  0.95160000  0.84860000  0.68940000  1
  C  C27  1  0.13430000  0.55410000  0.87740000  1
  C  C28  1  0.91910000  0.22730000  0.01620000  1
  C  C29  1  0.21960000  0.59720000  0.96100000  1
  C  C30  1  0.19670000  0.61470000  0.85620000  1
  C  C31  1  0.35870000  0.79950000  0.87660000  1
  C  C32  1  0.27210000  0.77310000  0.83560000  1
  C  C33  1  0.49300000  0.62320000  0.87380000  1
  C  C34  1  0.75070000  0.69410000  0.00240000  1
  C  C35  1  0.54990000  0.72490000  0.12120000  1
  C  C36  1  0.72690000  0.12870000  0.12660000  1
  C  C37  1  0.23050000  0.72770000  0.76600000  1
  C  C38  1  0.87320000  0.94180000  0.12400000  1
  C  C39  1  0.46816000  0.53916000  0.83072000  1
  C  C40  1  0.79650000  0.63450000  0.00380000  1
  C  C41  1  0.74740000  0.21440000  0.17080000  1
  C  C42  1  0.15470000  0.72110000  0.75540000  1
  C  C43  1  0.95850000  0.96550000  0.16580000  1
  C  C44  1  0.80170000  0.91850000  0.89880000  1
  C  C45  1  0.43631000  0.49251000  0.75922000  1
  C  C46  1  0.86210000  0.62270000  0.99220000  1
  C  C47  1  0.77420000  0.25560000  0.23880000  1
  C  C48  1  0.08010000  0.68250000  0.69060000  1
  C  C49  1  0.00170000  0.00530000  0.23560000  1
  C  C50  1  0.43394000  0.41354000  0.74748000  1
  C  C51  1  0.87770000  0.55890000  0.00220000  1
  C  C52  1  0.77670000  0.33210000  0.24780000  1
  C  C53  1  0.07860000  0.01220000  0.24760000  1
  C  C54  1  0.41250000  0.34390000  0.68720000  1
  C  C55  1  0.93900000  0.51560000  0.99980000  1
  C  C56  1  0.79910000  0.40490000  0.31220000  1
  C  C57  1  0.15140000  0.04840000  0.31060000  1
  C  C58  1  0.44590000  0.86570000  0.12260000  1
  C  C59  1  0.77270000  0.08090000  0.98380000  1
  C  C60  1  0.40280000  0.78040000  0.03900000  1
  C  C61  1  0.38530000  0.80330000  0.14380000  1
  C  C62  1  0.32710000  0.26790000  0.37660000  1
  C  C63  1  0.31250000  0.31350000  0.33560000  1
  C  C64  1  0.50060000  0.13080000  0.37380000  1
  C  C65  1  0.55830000  0.00170000  0.50240000  1
  C  C66  1  0.64630000  0.32130000  0.62120000  1
  C  C67  1  0.24790000  0.14970000  0.62660000  1
  C  C68  1  0.28830000  0.28550000  0.26600000  1
  C  C69  1  0.43220000  0.00080000  0.62400000  1
  C  C70  1  0.54156000  0.11256000  0.33072000  1
  C  C71  1  0.61930000  0.95730000  0.50380000  1
  C  C72  1  0.20640000  0.17340000  0.67080000  1
  C  C73  1  0.28430000  0.35070000  0.25540000  1
  C  C74  1  0.45030000  0.95730000  0.66580000  1
  C  C75  1  0.23030000  0.84710000  0.39880000  1
  C  C76  1  0.51671000  0.07291000  0.25922000  1
  C  C77  1  0.61950000  0.88010000  0.49220000  1
  C  C78  1  0.23320000  0.21460000  0.73880000  1
  C  C79  1  0.25810000  0.36050000  0.19060000  1
  C  C80  1  0.48030000  0.98390000  0.73560000  1
  C  C81  1  0.58394000  0.06354000  0.24748000  1
  C  C82  1  0.69330000  0.87450000  0.50220000  1
  C  C83  1  0.16570000  0.22110000  0.74780000  1
  C  C84  1  0.48540000  0.91900000  0.74760000  1
  C  C85  1  0.59330000  0.02470000  0.18720000  1
  C  C86  1  0.73420000  0.81080000  0.49980000  1
  C  C87  1  0.15730000  0.26310000  0.81220000  1
  C  C88  1  0.51220000  0.90920000  0.81060000  1
  C  C89  1  0.50690000  0.42670000  0.62260000  1
  C  C90  1  0.15290000  0.96110000  0.48380000  1
  C  C91  1  0.50860000  0.38620000  0.53900000  1
  C  C92  1  0.59050000  0.50850000  0.64380000  1
  C  C93  1  0.73210000  0.67290000  0.62340000  1
  C  C94  1  0.68650000  0.68750000  0.66440000  1
  C  C95  1  0.86920000  0.49940000  0.62620000  1
  C  C96  1  0.99830000  0.44170000  0.49760000  1
  C  C97  1  0.67870000  0.35370000  0.37880000  1
  C  C98  1  0.85030000  0.75210000  0.37340000  1
  C  C99  1  0.71450000  0.71170000  0.73400000  1
  C  C100  1  0.99920000  0.56780000  0.37600000  1
  C  C101  1  0.88744000  0.45844000  0.66928000  1
  C  C102  1  0.04270000  0.38070000  0.49620000  1
  C  C103  1  0.82660000  0.79360000  0.32920000  1
  C  C104  1  0.64930000  0.71570000  0.74460000  1
  C  C105  1  0.04270000  0.54970000  0.33420000  1
  C  C106  1  0.15290000  0.76970000  0.60120000  1
  C  C107  1  0.92709000  0.48329000  0.74078000  1
  C  C108  1  0.11990000  0.38050000  0.50780000  1
  C  C109  1  0.78540000  0.76680000  0.26120000  1
  C  C110  1  0.63950000  0.74190000  0.80940000  1
  C  C111  1  0.01610000  0.51970000  0.26440000  1
  C  C112  1  0.93646000  0.41606000  0.75252000  1
  C  C113  1  0.12550000  0.30670000  0.49780000  1
  C  C114  1  0.77890000  0.83430000  0.25220000  1
  C  C115  1  0.08100000  0.51460000  0.25240000  1
  C  C116  1  0.97530000  0.40670000  0.81280000  1
  C  C117  1  0.18920000  0.26580000  0.50020000  1
  C  C118  1  0.73690000  0.84270000  0.18780000  1
  C  C119  1  0.09080000  0.48780000  0.18940000  1
  C  C120  1  0.57330000  0.49310000  0.37740000  1
  C  C121  1  0.03890000  0.84710000  0.51620000  1
  C  C122  1  0.61380000  0.49140000  0.46100000  1
  C  C123  1  0.49150000  0.40950000  0.35620000  1
  H  H124  1  0.07790000  0.54070000  0.09660000  1
  H  H125  1  0.13100000  0.41100000  0.86540000  1
  H  H126  1  0.30490000  0.37170000  0.09720000  1
  H  H127  1  0.98970000  0.21790000  0.94920000  1
  H  H128  1  0.29380000  0.74960000  0.26660000  1
  H  H129  1  0.48890000  0.58050000  0.27480000  1
  H  H130  1  0.34710000  0.11010000  0.02020000  1
  H  H131  1  0.76330000  0.21210000  0.72740000  1
  H  H132  1  0.97600000  0.01800000  0.73140000  1
  H  H133  1  0.45930000  0.92210000  0.90340000  1
  H  H134  1  0.58900000  0.86900000  0.13460000  1
  H  H135  1  0.62830000  0.69510000  0.90280000  1
  H  H136  1  0.78210000  0.01030000  0.05080000  1
  H  H137  1  0.25040000  0.70620000  0.73340000  1
  H  H138  1  0.41950000  0.51110000  0.72520000  1
  H  H139  1  0.88990000  0.65290000  0.97980000  1
  H  H140  1  0.78790000  0.23670000  0.27260000  1
  H  H141  1  0.98200000  0.02400000  0.26860000  1
  H  H142  1  0.23130000  0.19410000  0.40340000  1
  H  H143  1  0.51560000  0.29560000  0.63460000  1
  H  H144  1  0.45770000  0.02450000  0.40280000  1
  H  H145  1  0.29050000  0.01870000  0.55080000  1
  H  H146  1  0.27720000  0.23300000  0.23340000  1
  H  H147  1  0.46410000  0.05570000  0.22520000  1
  H  H148  1  0.57690000  0.83990000  0.47980000  1
  H  H149  1  0.28590000  0.23470000  0.77260000  1
  H  H150  1  0.49460000  0.03660000  0.76860000  1
  H  H151  1  0.80590000  0.76870000  0.59660000  1
  H  H152  1  0.70440000  0.48440000  0.36540000  1
  H  H153  1  0.97550000  0.54230000  0.59720000  1
  H  H154  1  0.98130000  0.70950000  0.44920000  1
  H  H155  1  0.76700000  0.72280000  0.76660000  1
  H  H156  1  0.94430000  0.53590000  0.77480000  1
  H  H157  1  0.16010000  0.42310000  0.52020000  1
  H  H158  1  0.76530000  0.71410000  0.22740000  1
  H  H159  1  0.96340000  0.50540000  0.23140000  1
  N  N160  1  0.20910000  0.77710000  0.13700000  1
  N  N161  1  0.24010000  0.84930000  0.18560000  1
  N  N162  1  0.51111000  0.51451000  0.13682000  1
  N  N163  1  0.42310000  0.22670000  0.98080000  1
  N  N164  1  0.73550000  0.26390000  0.85640000  1
  N  N165  1  0.04980000  0.99280000  0.86520000  1
  N  N166  1  0.58874000  0.53574000  0.18828000  1
  N  N167  1  0.46820000  0.17620000  0.98160000  1
  N  N168  1  0.66290000  0.24590000  0.81020000  1
  N  N169  1  0.02100000  0.92000000  0.81500000  1
  N  N170  1  0.24410000  0.62810000  0.92700000  1
  N  N171  1  0.22290000  0.79090000  0.86300000  1
  N  N172  1  0.15070000  0.75990000  0.81440000  1
  N  N173  1  0.48549000  0.48889000  0.86318000  1
  N  N174  1  0.77330000  0.57690000  0.01920000  1
  N  N175  1  0.73610000  0.26450000  0.14360000  1
  N  N176  1  0.00720000  0.95020000  0.13480000  1
  N  N177  1  0.46426000  0.41126000  0.81172000  1
  N  N178  1  0.82380000  0.53180000  0.01840000  1
  N  N179  1  0.75410000  0.33710000  0.18980000  1
  N  N180  1  0.08000000  0.97900000  0.18500000  1
  N  N181  1  0.37190000  0.75590000  0.07300000  1
  N  N182  1  0.32210000  0.39010000  0.36300000  1
  N  N183  1  0.30450000  0.41370000  0.31440000  1
  N  N184  1  0.62429000  0.12769000  0.36318000  1
  N  N185  1  0.69230000  0.99590000  0.51920000  1
  N  N186  1  0.12910000  0.15750000  0.64360000  1
  N  N187  1  0.43460000  0.87760000  0.63480000  1
  N  N188  1  0.65046000  0.09746000  0.31172000  1
  N  N189  1  0.73660000  0.94460000  0.51840000  1
  N  N190  1  0.10270000  0.18570000  0.68980000  1
  N  N191  1  0.45600000  0.85500000  0.68500000  1
  N  N192  1  0.56710000  0.45110000  0.57300000  1
  N  N193  1  0.60990000  0.67790000  0.63700000  1
  N  N194  1  0.58630000  0.69550000  0.68560000  1
  N  N195  1  0.87231000  0.37571000  0.63682000  1
  N  N196  1  0.00410000  0.30770000  0.48080000  1
  N  N197  1  0.84250000  0.87090000  0.35640000  1
  N  N198  1  0.12240000  0.56540000  0.36520000  1
  N  N199  1  0.90254000  0.34954000  0.68828000  1
  N  N200  1  0.05540000  0.26340000  0.48160000  1
  N  N201  1  0.81430000  0.89730000  0.31020000  1
  N  N202  1  0.14500000  0.54400000  0.31500000  1
  N  N203  1  0.54890000  0.43290000  0.42700000  1
  O  O204  1  0.19811000  0.47491000  0.02982000  1
  O  O205  1  0.09117000  0.49477000  0.06814000  1
  O  O206  1  0.15566000  0.61746000  0.06112000  1
  O  O207  1  0.14764000  0.56424000  0.93748000  1
  O  O208  1  0.02860000  0.39100000  0.94920000  1
  O  O209  1  0.13003000  0.40423000  0.90526000  1
  O  O210  1  0.00423000  0.46883000  0.86726000  1
  O  O211  1  0.98960000  0.53920000  0.98340000  1
  O  O212  1  0.12342000  0.37182000  0.07564000  1
  O  O213  1  0.33432000  0.52172000  0.15724000  1
  O  O214  1  0.22696000  0.60196000  0.15512000  1
  O  O215  1  0.25207000  0.37507000  0.06854000  1
  O  O216  1  0.26409000  0.42949000  0.19658000  1
  O  O217  1  0.15862000  0.50882000  0.19564000  1
  O  O218  1  0.31345000  0.30665000  0.98270000  1
  O  O219  1  0.29110000  0.45430000  0.93720000  1
  O  O220  1  0.14822000  0.30142000  0.94984000  1
  O  O221  1  0.35476000  0.47076000  0.06312000  1
  O  O222  1  0.21760000  0.30320000  0.86640000  1
  O  O223  1  0.02921000  0.26661000  0.96502000  1
  O  O224  1  0.89188000  0.31188000  0.93536000  1
  O  O225  1  0.95500000  0.30060000  0.05320000  1
  O  O226  1  0.93749000  0.46049000  0.01838000  1
  O  O227  1  0.02992000  0.44472000  0.13524000  1
  O  O228  1  0.91441000  0.25061000  0.84302000  1
  O  O229  1  0.02650000  0.16670000  0.84500000  1
  O  O230  1  0.08727000  0.25607000  0.80514000  1
  O  O231  1  0.97942000  0.33842000  0.80564000  1
  O  O232  1  0.09490000  0.19750000  0.05380000  1
  O  O233  1  0.25610000  0.22550000  0.01520000  1
  O  O234  1  0.10568000  0.15248000  0.93796000  1
  O  O235  1  0.22926000  0.29786000  0.13572000  1
  O  O236  1  0.20510000  0.43330000  0.83120000  1
  O  O237  1  0.08380000  0.15540000  0.13080000  1
  O  O238  1  0.13290000  0.48830000  0.83340000  1
  O  O239  1  0.91320000  0.16800000  0.95960000  1
  O  O240  1  0.52509000  0.80189000  0.97018000  1
  O  O241  1  0.50523000  0.90883000  0.93186000  1
  O  O242  1  0.38254000  0.84434000  0.93888000  1
  O  O243  1  0.43576000  0.85236000  0.06252000  1
  O  O244  1  0.60900000  0.97140000  0.05080000  1
  O  O245  1  0.59577000  0.86997000  0.09474000  1
  O  O246  1  0.53117000  0.99577000  0.13274000  1
  O  O247  1  0.46080000  0.01040000  0.01660000  1
  O  O248  1  0.62818000  0.87658000  0.92436000  1
  O  O249  1  0.47828000  0.66568000  0.84276000  1
  O  O250  1  0.39804000  0.77304000  0.84488000  1
  O  O251  1  0.62493000  0.74793000  0.93146000  1
  O  O252  1  0.57051000  0.73591000  0.80342000  1
  O  O253  1  0.49118000  0.84138000  0.80436000  1
  O  O254  1  0.69335000  0.68655000  0.01730000  1
  O  O255  1  0.54570000  0.70890000  0.06280000  1
  O  O256  1  0.69858000  0.85178000  0.05016000  1
  O  O257  1  0.52924000  0.64524000  0.93688000  1
  O  O258  1  0.69680000  0.78240000  0.13360000  1
  O  O259  1  0.73339000  0.97079000  0.03498000  1
  O  O260  1  0.68812000  0.10812000  0.06464000  1
  O  O261  1  0.69940000  0.04500000  0.94680000  1
  O  O262  1  0.53951000  0.06251000  0.98162000  1
  O  O263  1  0.55528000  0.97008000  0.86476000  1
  O  O264  1  0.74939000  0.08559000  0.15698000  1
  O  O265  1  0.83330000  0.97350000  0.15500000  1
  O  O266  1  0.74393000  0.91273000  0.19486000  1
  O  O267  1  0.66158000  0.02058000  0.19436000  1
  O  O268  1  0.80250000  0.90510000  0.94620000  1
  O  O269  1  0.77450000  0.74390000  0.98480000  1
  O  O270  1  0.84752000  0.89432000  0.06204000  1
  O  O271  1  0.70214000  0.77074000  0.86428000  1
  O  O272  1  0.56670000  0.79490000  0.16880000  1
  O  O273  1  0.84460000  0.91620000  0.86920000  1
  O  O274  1  0.51170000  0.86710000  0.16660000  1
  O  O275  1  0.83200000  0.08680000  0.04040000  1
  O  O276  1  0.41829000  0.19509000  0.47018000  1
  O  O277  1  0.27303000  0.17663000  0.43186000  1
  O  O278  1  0.34454000  0.30634000  0.43888000  1
  O  O279  1  0.46016000  0.37676000  0.56252000  1
  O  O280  1  0.32940000  0.19180000  0.55080000  1
  O  O281  1  0.47477000  0.24897000  0.59474000  1
  O  O282  1  0.38697000  0.35157000  0.63274000  1
  O  O283  1  0.25620000  0.30580000  0.51660000  1
  O  O284  1  0.29778000  0.04618000  0.42436000  1
  O  O285  1  0.42708000  0.11448000  0.34276000  1
  O  O286  1  0.32184000  0.19684000  0.34488000  1
  O  O287  1  0.43353000  0.05653000  0.43146000  1
  O  O288  1  0.31751000  0.98291000  0.30342000  1
  O  O289  1  0.21298000  0.06318000  0.30436000  1
  O  O290  1  0.58075000  0.07395000  0.51730000  1
  O  O291  1  0.60390000  0.26710000  0.56280000  1
  O  O292  1  0.44838000  0.10158000  0.55016000  1
  O  O293  1  0.54164000  0.15764000  0.43688000  1
  O  O294  1  0.60120000  0.18680000  0.63360000  1
  O  O295  1  0.31419000  0.05159000  0.53498000  1
  O  O296  1  0.20652000  0.12652000  0.56464000  1
  O  O297  1  0.15180000  0.99740000  0.44680000  1
  O  O298  1  0.16911000  0.19211000  0.48162000  1
  O  O299  1  0.14468000  0.05948000  0.36476000  1
  O  O300  1  0.32139000  0.15759000  0.65698000  1
  O  O301  1  0.43150000  0.07170000  0.65500000  1
  O  O302  1  0.53213000  0.20093000  0.69486000  1
  O  O303  1  0.42378000  0.28278000  0.69436000  1
  O  O304  1  0.29110000  0.89370000  0.44620000  1
  O  O305  1  0.49090000  0.96030000  0.48480000  1
  O  O306  1  0.41772000  0.96452000  0.56204000  1
  O  O307  1  0.34354000  0.91214000  0.36428000  1
  O  O308  1  0.62390000  0.35210000  0.66880000  1
  O  O309  1  0.20300000  0.77460000  0.36920000  1
  O  O310  1  0.54951667  0.40491667  0.66663333  1
  O  O311  1  0.20360000  0.95840000  0.54040000  1
  O  O312  1  0.80491000  0.58171000  0.52982000  1
  O  O313  1  0.82337000  0.72697000  0.56814000  1
  O  O314  1  0.69366000  0.65546000  0.56112000  1
  O  O315  1  0.62324000  0.53984000  0.43748000  1
  O  O316  1  0.80820000  0.67060000  0.44920000  1
  O  O317  1  0.75103000  0.52523000  0.40526000  1
  O  O318  1  0.64843000  0.61303000  0.36726000  1
  O  O319  1  0.69420000  0.74380000  0.48340000  1
  O  O320  1  0.95382000  0.70222000  0.57564000  1
  O  O321  1  0.88552000  0.57292000  0.65724000  1
  O  O322  1  0.80316000  0.67816000  0.65512000  1
  O  O323  1  0.94347000  0.56647000  0.56854000  1
  O  O324  1  0.01709000  0.68249000  0.69658000  1
  O  O325  1  0.93682000  0.78702000  0.69564000  1
  O  O326  1  0.92605000  0.41925000  0.48270000  1
  O  O327  1  0.73290000  0.39610000  0.43720000  1
  O  O328  1  0.89842000  0.55162000  0.44984000  1
  O  O329  1  0.84236000  0.45836000  0.56312000  1
  O  O330  1  0.81320000  0.39880000  0.36640000  1
  O  O331  1  0.94841000  0.68581000  0.46502000  1
  O  O332  1  0.87348000  0.79348000  0.43536000  1
  O  O333  1  0.00260000  0.84820000  0.55320000  1
  O  O334  1  0.80789000  0.83089000  0.51838000  1
  O  O335  1  0.94052000  0.85532000  0.63524000  1
  O  O336  1  0.84241000  0.67861000  0.34302000  1
  O  O337  1  0.92830000  0.56850000  0.34500000  1
  O  O338  1  0.79907000  0.46787000  0.30514000  1
  O  O339  1  0.71722000  0.57622000  0.30564000  1
  O  O340  1  0.10630000  0.70890000  0.55380000  1
  O  O341  1  0.03970000  0.50910000  0.51520000  1
  O  O342  1  0.03548000  0.58228000  0.43796000  1
  O  O343  1  0.08786000  0.65646000  0.63572000  1
  O  O344  1  0.64790000  0.37610000  0.33120000  1
  O  O345  1  0.22540000  0.79700000  0.63080000  1
  O  O346  1  0.59508333  0.45048333  0.33336667  1
  O  O347  1  0.04160000  0.79640000  0.45960000  1
  Zr  Zr348  1  0.09515000  0.49717000  0.97494000  1
  Zr  Zr349  1  0.20823000  0.47471000  0.12052000  1
  Zr  Zr350  1  0.23990000  0.38966000  0.97536000  1
  Zr  Zr351  1  0.01030000  0.37866000  0.02672000  1
  Zr  Zr352  1  0.04092000  0.29426000  0.88070000  1
  Zr  Zr353  1  0.15399000  0.27177000  0.02620000  1
  Zr  Zr354  1  0.50283000  0.90485000  0.02506000  1
  Zr  Zr355  1  0.52529000  0.79177000  0.87948000  1
  Zr  Zr356  1  0.61034000  0.76010000  0.02464000  1
  Zr  Zr357  1  0.62134000  0.98970000  0.97328000  1
  Zr  Zr358  1  0.70574000  0.95908000  0.11930000  1
  Zr  Zr359  1  0.72823000  0.84601000  0.97380000  1
  Zr  Zr360  1  0.37021000  0.27223000  0.52506000  1
  Zr  Zr361  1  0.33771000  0.10419000  0.37948000  1
  Zr  Zr362  1  0.51454000  0.16430000  0.52464000  1
  Zr  Zr363  1  0.23358000  0.10194000  0.47328000  1
  Zr  Zr364  1  0.41022000  0.16356000  0.61930000  1
  Zr  Zr365  1  0.37779000  0.99557000  0.47380000  1
  Zr  Zr366  1  0.72777000  0.62979000  0.47494000  1
  Zr  Zr367  1  0.89581000  0.66229000  0.62052000  1
  Zr  Zr368  1  0.83570000  0.48546000  0.47536000  1
  Zr  Zr369  1  0.89806000  0.76642000  0.52672000  1
  Zr  Zr370  1  0.83644000  0.58978000  0.38070000  1
  Zr  Zr371  1  0.00443000  0.62221000  0.52620000  1
