# generated using pymatgen
data_Zr3H10(C3O4)4
_symmetry_space_group_name_H-M   'P 1'
_cell_length_a   17.87360000
_cell_length_b   17.87360000
_cell_length_c   17.87360000
_cell_angle_alpha   90.00000000
_cell_angle_beta   90.00000000
_cell_angle_gamma   90.00000000
_symmetry_Int_Tables_number   1
_chemical_formula_structural   Zr3H10(C3O4)4
_chemical_formula_sum   'Zr24 H80 C96 O128'
_cell_volume   5709.99993635
_cell_formula_units_Z   8
loop_
 _symmetry_equiv_pos_site_id
 _symmetry_equiv_pos_as_xyz
  1  'x, y, z'
loop_
 _atom_site_type_symbol
 _atom_site_label
 _atom_site_symmetry_multiplicity
 _atom_site_fract_x
 _atom_site_fract_y
 _atom_site_fract_z
 _atom_site_occupancy
  Zr  Zr0  1  0.36080000  0.51120000  0.00880000  1
  Zr  Zr1  1  0.13920000  0.98880000  0.00880000  1
  Zr  Zr2  1  0.36080000  0.98880000  0.49120000  1
  Zr  Zr3  1  0.13920000  0.51120000  0.49120000  1
  Zr  Zr4  1  0.00880000  0.36080000  0.51120000  1
  Zr  Zr5  1  0.49120000  0.13920000  0.51120000  1
  Zr  Zr6  1  0.00880000  0.13920000  0.98880000  1
  Zr  Zr7  1  0.49120000  0.36080000  0.98880000  1
  Zr  Zr8  1  0.51120000  0.00880000  0.36080000  1
  Zr  Zr9  1  0.51120000  0.49120000  0.13920000  1
  Zr  Zr10  1  0.98880000  0.00880000  0.13920000  1
  Zr  Zr11  1  0.98880000  0.49120000  0.36080000  1
  Zr  Zr12  1  0.63920000  0.48880000  0.99120000  1
  Zr  Zr13  1  0.86080000  0.01120000  0.99120000  1
  Zr  Zr14  1  0.63920000  0.01120000  0.50880000  1
  Zr  Zr15  1  0.86080000  0.48880000  0.50880000  1
  Zr  Zr16  1  0.99120000  0.63920000  0.48880000  1
  Zr  Zr17  1  0.50880000  0.86080000  0.48880000  1
  Zr  Zr18  1  0.99120000  0.86080000  0.01120000  1
  Zr  Zr19  1  0.50880000  0.63920000  0.01120000  1
  Zr  Zr20  1  0.48880000  0.99120000  0.63920000  1
  Zr  Zr21  1  0.48880000  0.50880000  0.86080000  1
  Zr  Zr22  1  0.01120000  0.99120000  0.86080000  1
  Zr  Zr23  1  0.01120000  0.50880000  0.63920000  1
  H  H24  1  0.19020000  0.30430000  0.99800000  1
  H  H25  1  0.31600000  0.79480000  0.02410000  1
  H  H26  1  0.41110000  0.60840000  0.12390000  1
  H  H27  1  0.39300000  0.39300000  0.10700000  1
  H  H28  1  0.30980000  0.19570000  0.99800000  1
  H  H29  1  0.18400000  0.70520000  0.02410000  1
  H  H30  1  0.08890000  0.89160000  0.12390000  1
  H  H31  1  0.10700000  0.10700000  0.10700000  1
  H  H32  1  0.19020000  0.19570000  0.50200000  1
  H  H33  1  0.31600000  0.70520000  0.47590000  1
  H  H34  1  0.41110000  0.89160000  0.37610000  1
  H  H35  1  0.39300000  0.10700000  0.39300000  1
  H  H36  1  0.30980000  0.30430000  0.50200000  1
  H  H37  1  0.18400000  0.79480000  0.47590000  1
  H  H38  1  0.08890000  0.60840000  0.37610000  1
  H  H39  1  0.10700000  0.39300000  0.39300000  1
  H  H40  1  0.99800000  0.19020000  0.30430000  1
  H  H41  1  0.02410000  0.31600000  0.79480000  1
  H  H42  1  0.12390000  0.41110000  0.60840000  1
  H  H43  1  0.50200000  0.30980000  0.30430000  1
  H  H44  1  0.47590000  0.18400000  0.79480000  1
  H  H45  1  0.37610000  0.08890000  0.60840000  1
  H  H46  1  0.99800000  0.30980000  0.19570000  1
  H  H47  1  0.02410000  0.18400000  0.70520000  1
  H  H48  1  0.12390000  0.08890000  0.89160000  1
  H  H49  1  0.50200000  0.19020000  0.19570000  1
  H  H50  1  0.47590000  0.31600000  0.70520000  1
  H  H51  1  0.37610000  0.41110000  0.89160000  1
  H  H52  1  0.30430000  0.99800000  0.19020000  1
  H  H53  1  0.79480000  0.02410000  0.31600000  1
  H  H54  1  0.60840000  0.12390000  0.41110000  1
  H  H55  1  0.30430000  0.50200000  0.30980000  1
  H  H56  1  0.79480000  0.47590000  0.18400000  1
  H  H57  1  0.60840000  0.37610000  0.08890000  1
  H  H58  1  0.19570000  0.99800000  0.30980000  1
  H  H59  1  0.70520000  0.02410000  0.18400000  1
  H  H60  1  0.89160000  0.12390000  0.08890000  1
  H  H61  1  0.19570000  0.50200000  0.19020000  1
  H  H62  1  0.70520000  0.47590000  0.31600000  1
  H  H63  1  0.89160000  0.37610000  0.41110000  1
  H  H64  1  0.80980000  0.69570000  0.00200000  1
  H  H65  1  0.68400000  0.20520000  0.97590000  1
  H  H66  1  0.58890000  0.39160000  0.87610000  1
  H  H67  1  0.60700000  0.60700000  0.89300000  1
  H  H68  1  0.69020000  0.80430000  0.00200000  1
  H  H69  1  0.81600000  0.29480000  0.97590000  1
  H  H70  1  0.91110000  0.10840000  0.87610000  1
  H  H71  1  0.89300000  0.89300000  0.89300000  1
  H  H72  1  0.80980000  0.80430000  0.49800000  1
  H  H73  1  0.68400000  0.29480000  0.52410000  1
  H  H74  1  0.58890000  0.10840000  0.62390000  1
  H  H75  1  0.60700000  0.89300000  0.60700000  1
  H  H76  1  0.69020000  0.69570000  0.49800000  1
  H  H77  1  0.81600000  0.20520000  0.52410000  1
  H  H78  1  0.91110000  0.39160000  0.62390000  1
  H  H79  1  0.89300000  0.60700000  0.60700000  1
  H  H80  1  0.00200000  0.80980000  0.69570000  1
  H  H81  1  0.97590000  0.68400000  0.20520000  1
  H  H82  1  0.87610000  0.58890000  0.39160000  1
  H  H83  1  0.49800000  0.69020000  0.69570000  1
  H  H84  1  0.52410000  0.81600000  0.20520000  1
  H  H85  1  0.62390000  0.91110000  0.39160000  1
  H  H86  1  0.00200000  0.69020000  0.80430000  1
  H  H87  1  0.97590000  0.81600000  0.29480000  1
  H  H88  1  0.87610000  0.91110000  0.10840000  1
  H  H89  1  0.49800000  0.80980000  0.80430000  1
  H  H90  1  0.52410000  0.68400000  0.29480000  1
  H  H91  1  0.62390000  0.58890000  0.10840000  1
  H  H92  1  0.69570000  0.00200000  0.80980000  1
  H  H93  1  0.20520000  0.97590000  0.68400000  1
  H  H94  1  0.39160000  0.87610000  0.58890000  1
  H  H95  1  0.69570000  0.49800000  0.69020000  1
  H  H96  1  0.20520000  0.52410000  0.81600000  1
  H  H97  1  0.39160000  0.62390000  0.91110000  1
  H  H98  1  0.80430000  0.00200000  0.69020000  1
  H  H99  1  0.29480000  0.97590000  0.81600000  1
  H  H100  1  0.10840000  0.87610000  0.91110000  1
  H  H101  1  0.80430000  0.49800000  0.80980000  1
  H  H102  1  0.29480000  0.52410000  0.68400000  1
  H  H103  1  0.10840000  0.62390000  0.58890000  1
  C  C104  1  0.33680000  0.68420000  0.02250000  1
  C  C105  1  0.30650000  0.34230000  0.00130000  1
  C  C106  1  0.24280000  0.28690000  0.00270000  1
  C  C107  1  0.28840000  0.75410000  0.02640000  1
  C  C108  1  0.16320000  0.81580000  0.02250000  1
  C  C109  1  0.19350000  0.15770000  0.00130000  1
  C  C110  1  0.25720000  0.21310000  0.00270000  1
  C  C111  1  0.21160000  0.74590000  0.02640000  1
  C  C112  1  0.33680000  0.81580000  0.47750000  1
  C  C113  1  0.30650000  0.15770000  0.49870000  1
  C  C114  1  0.24280000  0.21310000  0.49730000  1
  C  C115  1  0.28840000  0.74590000  0.47360000  1
  C  C116  1  0.16320000  0.68420000  0.47750000  1
  C  C117  1  0.19350000  0.34230000  0.49870000  1
  C  C118  1  0.25720000  0.28690000  0.49730000  1
  C  C119  1  0.21160000  0.75410000  0.47360000  1
  C  C120  1  0.02250000  0.33680000  0.68420000  1
  C  C121  1  0.00130000  0.30650000  0.34230000  1
  C  C122  1  0.00270000  0.24280000  0.28690000  1
  C  C123  1  0.02640000  0.28840000  0.75410000  1
  C  C124  1  0.47750000  0.16320000  0.68420000  1
  C  C125  1  0.49870000  0.19350000  0.34230000  1
  C  C126  1  0.49730000  0.25720000  0.28690000  1
  C  C127  1  0.47360000  0.21160000  0.75410000  1
  C  C128  1  0.02250000  0.16320000  0.81580000  1
  C  C129  1  0.00130000  0.19350000  0.15770000  1
  C  C130  1  0.00270000  0.25720000  0.21310000  1
  C  C131  1  0.02640000  0.21160000  0.74590000  1
  C  C132  1  0.47750000  0.33680000  0.81580000  1
  C  C133  1  0.49870000  0.30650000  0.15770000  1
  C  C134  1  0.49730000  0.24280000  0.21310000  1
  C  C135  1  0.47360000  0.28840000  0.74590000  1
  C  C136  1  0.68420000  0.02250000  0.33680000  1
  C  C137  1  0.34230000  0.00130000  0.30650000  1
  C  C138  1  0.28690000  0.00270000  0.24280000  1
  C  C139  1  0.75410000  0.02640000  0.28840000  1
  C  C140  1  0.68420000  0.47750000  0.16320000  1
  C  C141  1  0.34230000  0.49870000  0.19350000  1
  C  C142  1  0.28690000  0.49730000  0.25720000  1
  C  C143  1  0.75410000  0.47360000  0.21160000  1
  C  C144  1  0.81580000  0.02250000  0.16320000  1
  C  C145  1  0.15770000  0.00130000  0.19350000  1
  C  C146  1  0.21310000  0.00270000  0.25720000  1
  C  C147  1  0.74590000  0.02640000  0.21160000  1
  C  C148  1  0.81580000  0.47750000  0.33680000  1
  C  C149  1  0.15770000  0.49870000  0.30650000  1
  C  C150  1  0.21310000  0.49730000  0.24280000  1
  C  C151  1  0.74590000  0.47360000  0.28840000  1
  C  C152  1  0.66320000  0.31580000  0.97750000  1
  C  C153  1  0.69350000  0.65770000  0.99870000  1
  C  C154  1  0.75720000  0.71310000  0.99730000  1
  C  C155  1  0.71160000  0.24590000  0.97360000  1
  C  C156  1  0.83680000  0.18420000  0.97750000  1
  C  C157  1  0.80650000  0.84230000  0.99870000  1
  C  C158  1  0.74280000  0.78690000  0.99730000  1
  C  C159  1  0.78840000  0.25410000  0.97360000  1
  C  C160  1  0.66320000  0.18420000  0.52250000  1
  C  C161  1  0.69350000  0.84230000  0.50130000  1
  C  C162  1  0.75720000  0.78690000  0.50270000  1
  C  C163  1  0.71160000  0.25410000  0.52640000  1
  C  C164  1  0.83680000  0.31580000  0.52250000  1
  C  C165  1  0.80650000  0.65770000  0.50130000  1
  C  C166  1  0.74280000  0.71310000  0.50270000  1
  C  C167  1  0.78840000  0.24590000  0.52640000  1
  C  C168  1  0.97750000  0.66320000  0.31580000  1
  C  C169  1  0.99870000  0.69350000  0.65770000  1
  C  C170  1  0.99730000  0.75720000  0.71310000  1
  C  C171  1  0.97360000  0.71160000  0.24590000  1
  C  C172  1  0.52250000  0.83680000  0.31580000  1
  C  C173  1  0.50130000  0.80650000  0.65770000  1
  C  C174  1  0.50270000  0.74280000  0.71310000  1
  C  C175  1  0.52640000  0.78840000  0.24590000  1
  C  C176  1  0.97750000  0.83680000  0.18420000  1
  C  C177  1  0.99870000  0.80650000  0.84230000  1
  C  C178  1  0.99730000  0.74280000  0.78690000  1
  C  C179  1  0.97360000  0.78840000  0.25410000  1
  C  C180  1  0.52250000  0.66320000  0.18420000  1
  C  C181  1  0.50130000  0.69350000  0.84230000  1
  C  C182  1  0.50270000  0.75720000  0.78690000  1
  C  C183  1  0.52640000  0.71160000  0.25410000  1
  C  C184  1  0.31580000  0.97750000  0.66320000  1
  C  C185  1  0.65770000  0.99870000  0.69350000  1
  C  C186  1  0.71310000  0.99730000  0.75720000  1
  C  C187  1  0.24590000  0.97360000  0.71160000  1
  C  C188  1  0.31580000  0.52250000  0.83680000  1
  C  C189  1  0.65770000  0.50130000  0.80650000  1
  C  C190  1  0.71310000  0.50270000  0.74280000  1
  C  C191  1  0.24590000  0.52640000  0.78840000  1
  C  C192  1  0.18420000  0.97750000  0.83680000  1
  C  C193  1  0.84230000  0.99870000  0.80650000  1
  C  C194  1  0.78690000  0.99730000  0.74280000  1
  C  C195  1  0.25410000  0.97360000  0.78840000  1
  C  C196  1  0.18420000  0.52250000  0.66320000  1
  C  C197  1  0.84230000  0.50130000  0.69350000  1
  C  C198  1  0.78690000  0.50270000  0.75720000  1
  C  C199  1  0.25410000  0.52640000  0.71160000  1
  O  O200  1  0.30950000  0.62440000  0.02970000  1
  O  O201  1  0.29190000  0.40610000  0.00720000  1
  O  O202  1  0.40710000  0.70560000  0.02090000  1
  O  O203  1  0.37290000  0.31400000  0.99630000  1
  O  O204  1  0.43620000  0.57710000  0.09040000  1
  O  O205  1  0.42600000  0.42600000  0.07400000  1
  O  O206  1  0.19050000  0.87560000  0.02970000  1
  O  O207  1  0.20810000  0.09390000  0.00720000  1
  O  O208  1  0.09290000  0.79440000  0.02090000  1
  O  O209  1  0.12710000  0.18600000  0.99630000  1
  O  O210  1  0.06380000  0.92290000  0.09040000  1
  O  O211  1  0.07400000  0.07400000  0.07400000  1
  O  O212  1  0.30950000  0.87560000  0.47030000  1
  O  O213  1  0.29190000  0.09390000  0.49280000  1
  O  O214  1  0.40710000  0.79440000  0.47910000  1
  O  O215  1  0.37290000  0.18600000  0.50370000  1
  O  O216  1  0.43620000  0.92290000  0.40960000  1
  O  O217  1  0.42600000  0.07400000  0.42600000  1
  O  O218  1  0.19050000  0.62440000  0.47030000  1
  O  O219  1  0.20810000  0.40610000  0.49280000  1
  O  O220  1  0.09290000  0.70560000  0.47910000  1
  O  O221  1  0.12710000  0.31400000  0.50370000  1
  O  O222  1  0.06380000  0.57710000  0.40960000  1
  O  O223  1  0.07400000  0.42600000  0.42600000  1
  O  O224  1  0.02970000  0.30950000  0.62440000  1
  O  O225  1  0.00720000  0.29190000  0.40610000  1
  O  O226  1  0.02090000  0.40710000  0.70560000  1
  O  O227  1  0.99630000  0.37290000  0.31400000  1
  O  O228  1  0.09040000  0.43620000  0.57710000  1
  O  O229  1  0.47030000  0.19050000  0.62440000  1
  O  O230  1  0.49280000  0.20810000  0.40610000  1
  O  O231  1  0.47910000  0.09290000  0.70560000  1
  O  O232  1  0.50370000  0.12710000  0.31400000  1
  O  O233  1  0.40960000  0.06380000  0.57710000  1
  O  O234  1  0.02970000  0.19050000  0.87560000  1
  O  O235  1  0.00720000  0.20810000  0.09390000  1
  O  O236  1  0.02090000  0.09290000  0.79440000  1
  O  O237  1  0.99630000  0.12710000  0.18600000  1
  O  O238  1  0.09040000  0.06380000  0.92290000  1
  O  O239  1  0.47030000  0.30950000  0.87560000  1
  O  O240  1  0.49280000  0.29190000  0.09390000  1
  O  O241  1  0.47910000  0.40710000  0.79440000  1
  O  O242  1  0.50370000  0.37290000  0.18600000  1
  O  O243  1  0.40960000  0.43620000  0.92290000  1
  O  O244  1  0.62440000  0.02970000  0.30950000  1
  O  O245  1  0.40610000  0.00720000  0.29190000  1
  O  O246  1  0.70560000  0.02090000  0.40710000  1
  O  O247  1  0.31400000  0.99630000  0.37290000  1
  O  O248  1  0.57710000  0.09040000  0.43620000  1
  O  O249  1  0.62440000  0.47030000  0.19050000  1
  O  O250  1  0.40610000  0.49280000  0.20810000  1
  O  O251  1  0.70560000  0.47910000  0.09290000  1
  O  O252  1  0.31400000  0.50370000  0.12710000  1
  O  O253  1  0.57710000  0.40960000  0.06380000  1
  O  O254  1  0.87560000  0.02970000  0.19050000  1
  O  O255  1  0.09390000  0.00720000  0.20810000  1
  O  O256  1  0.79440000  0.02090000  0.09290000  1
  O  O257  1  0.18600000  0.99630000  0.12710000  1
  O  O258  1  0.92290000  0.09040000  0.06380000  1
  O  O259  1  0.87560000  0.47030000  0.30950000  1
  O  O260  1  0.09390000  0.49280000  0.29190000  1
  O  O261  1  0.79440000  0.47910000  0.40710000  1
  O  O262  1  0.18600000  0.50370000  0.37290000  1
  O  O263  1  0.92290000  0.40960000  0.43620000  1
  O  O264  1  0.69050000  0.37560000  0.97030000  1
  O  O265  1  0.70810000  0.59390000  0.99280000  1
  O  O266  1  0.59290000  0.29440000  0.97910000  1
  O  O267  1  0.62710000  0.68600000  0.00370000  1
  O  O268  1  0.56380000  0.42290000  0.90960000  1
  O  O269  1  0.57400000  0.57400000  0.92600000  1
  O  O270  1  0.80950000  0.12440000  0.97030000  1
  O  O271  1  0.79190000  0.90610000  0.99280000  1
  O  O272  1  0.90710000  0.20560000  0.97910000  1
  O  O273  1  0.87290000  0.81400000  0.00370000  1
  O  O274  1  0.93620000  0.07710000  0.90960000  1
  O  O275  1  0.92600000  0.92600000  0.92600000  1
  O  O276  1  0.69050000  0.12440000  0.52970000  1
  O  O277  1  0.70810000  0.90610000  0.50720000  1
  O  O278  1  0.59290000  0.20560000  0.52090000  1
  O  O279  1  0.62710000  0.81400000  0.49630000  1
  O  O280  1  0.56380000  0.07710000  0.59040000  1
  O  O281  1  0.57400000  0.92600000  0.57400000  1
  O  O282  1  0.80950000  0.37560000  0.52970000  1
  O  O283  1  0.79190000  0.59390000  0.50720000  1
  O  O284  1  0.90710000  0.29440000  0.52090000  1
  O  O285  1  0.87290000  0.68600000  0.49630000  1
  O  O286  1  0.93620000  0.42290000  0.59040000  1
  O  O287  1  0.92600000  0.57400000  0.57400000  1
  O  O288  1  0.97030000  0.69050000  0.37560000  1
  O  O289  1  0.99280000  0.70810000  0.59390000  1
  O  O290  1  0.97910000  0.59290000  0.29440000  1
  O  O291  1  0.00370000  0.62710000  0.68600000  1
  O  O292  1  0.90960000  0.56380000  0.42290000  1
  O  O293  1  0.52970000  0.80950000  0.37560000  1
  O  O294  1  0.50720000  0.79190000  0.59390000  1
  O  O295  1  0.52090000  0.90710000  0.29440000  1
  O  O296  1  0.49630000  0.87290000  0.68600000  1
  O  O297  1  0.59040000  0.93620000  0.42290000  1
  O  O298  1  0.97030000  0.80950000  0.12440000  1
  O  O299  1  0.99280000  0.79190000  0.90610000  1
  O  O300  1  0.97910000  0.90710000  0.20560000  1
  O  O301  1  0.00370000  0.87290000  0.81400000  1
  O  O302  1  0.90960000  0.93620000  0.07710000  1
  O  O303  1  0.52970000  0.69050000  0.12440000  1
  O  O304  1  0.50720000  0.70810000  0.90610000  1
  O  O305  1  0.52090000  0.59290000  0.20560000  1
  O  O306  1  0.49630000  0.62710000  0.81400000  1
  O  O307  1  0.59040000  0.56380000  0.07710000  1
  O  O308  1  0.37560000  0.97030000  0.69050000  1
  O  O309  1  0.59390000  0.99280000  0.70810000  1
  O  O310  1  0.29440000  0.97910000  0.59290000  1
  O  O311  1  0.68600000  0.00370000  0.62710000  1
  O  O312  1  0.42290000  0.90960000  0.56380000  1
  O  O313  1  0.37560000  0.52970000  0.80950000  1
  O  O314  1  0.59390000  0.50720000  0.79190000  1
  O  O315  1  0.29440000  0.52090000  0.90710000  1
  O  O316  1  0.68600000  0.49630000  0.87290000  1
  O  O317  1  0.42290000  0.59040000  0.93620000  1
  O  O318  1  0.12440000  0.97030000  0.80950000  1
  O  O319  1  0.90610000  0.99280000  0.79190000  1
  O  O320  1  0.20560000  0.97910000  0.90710000  1
  O  O321  1  0.81400000  0.00370000  0.87290000  1
  O  O322  1  0.07710000  0.90960000  0.93620000  1
  O  O323  1  0.12440000  0.52970000  0.69050000  1
  O  O324  1  0.90610000  0.50720000  0.70810000  1
  O  O325  1  0.20560000  0.52090000  0.59290000  1
  O  O326  1  0.81400000  0.49630000  0.62710000  1
  O  O327  1  0.07710000  0.59040000  0.56380000  1
