# generated using pymatgen
data_Zr3H24C27O10
_symmetry_space_group_name_H-M   'P 1'
_cell_length_a   25.09915006
_cell_length_b   25.09915006
_cell_length_c   25.09915006
_cell_angle_alpha   62.97981484
_cell_angle_beta   62.97981484
_cell_angle_gamma   62.97981484
_symmetry_Int_Tables_number   1
_chemical_formula_structural   Zr3H24C27O10
_chemical_formula_sum   'Zr24 H192 C216 O80'
_cell_volume   11920.26676965
_cell_formula_units_Z   8
loop_
 _symmetry_equiv_pos_site_id
 _symmetry_equiv_pos_as_xyz
  1  'x, y, z'
loop_
 _atom_site_type_symbol
 _atom_site_label
 _atom_site_symmetry_multiplicity
 _atom_site_fract_x
 _atom_site_fract_y
 _atom_site_fract_z
 _atom_site_occupancy
  C  C0  1  0.91004000  0.65304000  0.55974000  1
  C  C1  1  0.70024000  0.43084000  0.65154000  1
  C  C2  1  0.00514000  0.61244000  0.78664000  1
  C  C3  1  0.19336000  0.71386000  0.66356000  1
  C  C4  1  0.94887000  0.61417000  0.84157000  1
  C  C5  1  0.92030000  0.56600000  0.86830000  1
  C  C6  1  0.13747000  0.76347000  0.67437000  1
  C  C7  1  0.85549000  0.65009000  0.55919000  1
  C  C8  1  0.09040000  0.75320000  0.44260000  1
  C  C9  1  0.74817000  0.43277000  0.66327000  1
  C  C10  1  0.18360000  0.68980000  0.44790000  1
  C  C11  1  0.92220000  0.66050000  0.87030000  1
  C  C12  1  0.14600000  0.74670000  0.44480000  1
  C  C13  1  0.15390000  0.65760000  0.44500000  1
  C  C14  1  0.09810000  0.69420000  0.44350000  1
  C  C15  1  0.55974000  0.91004000  0.65304000  1
  C  C16  1  0.65154000  0.70024000  0.43084000  1
  C  C17  1  0.78664000  0.00514000  0.61244000  1
  C  C18  1  0.66356000  0.19336000  0.71386000  1
  C  C19  1  0.84157000  0.94887000  0.61417000  1
  C  C20  1  0.86830000  0.92030000  0.56600000  1
  C  C21  1  0.67437000  0.13747000  0.76347000  1
  C  C22  1  0.55919000  0.85549000  0.65009000  1
  C  C23  1  0.44260000  0.09040000  0.75320000  1
  C  C24  1  0.66327000  0.74817000  0.43277000  1
  C  C25  1  0.44790000  0.18360000  0.68980000  1
  C  C26  1  0.87030000  0.92220000  0.66050000  1
  C  C27  1  0.44480000  0.14600000  0.74670000  1
  C  C28  1  0.44500000  0.15390000  0.65760000  1
  C  C29  1  0.44350000  0.09810000  0.69420000  1
  C  C30  1  0.65304000  0.55974000  0.91004000  1
  C  C31  1  0.43084000  0.65154000  0.70024000  1
  C  C32  1  0.61244000  0.78664000  0.00514000  1
  C  C33  1  0.71386000  0.66356000  0.19336000  1
  C  C34  1  0.61417000  0.84157000  0.94887000  1
  C  C35  1  0.56600000  0.86830000  0.92030000  1
  C  C36  1  0.76347000  0.67437000  0.13747000  1
  C  C37  1  0.65009000  0.55919000  0.85549000  1
  C  C38  1  0.75320000  0.44260000  0.09040000  1
  C  C39  1  0.43277000  0.66327000  0.74817000  1
  C  C40  1  0.68980000  0.44790000  0.18360000  1
  C  C41  1  0.66050000  0.87030000  0.92220000  1
  C  C42  1  0.74670000  0.44480000  0.14600000  1
  C  C43  1  0.65760000  0.44500000  0.15390000  1
  C  C44  1  0.69420000  0.44350000  0.09810000  1
  C  C45  1  0.44026000  0.34696000  0.08996000  1
  C  C46  1  0.34846000  0.56916000  0.29976000  1
  C  C47  1  0.21336000  0.38756000  0.99486000  1
  C  C48  1  0.33644000  0.28614000  0.80664000  1
  C  C49  1  0.15843000  0.38583000  0.05113000  1
  C  C50  1  0.13170000  0.43400000  0.07970000  1
  C  C51  1  0.32563000  0.23653000  0.86253000  1
  C  C52  1  0.44081000  0.34991000  0.14451000  1
  C  C53  1  0.55740000  0.24680000  0.90960000  1
  C  C54  1  0.33673000  0.56723000  0.25183000  1
  C  C55  1  0.55210000  0.31020000  0.81640000  1
  C  C56  1  0.12970000  0.33950000  0.07780000  1
  C  C57  1  0.55520000  0.25330000  0.85400000  1
  C  C58  1  0.55500000  0.34240000  0.84610000  1
  C  C59  1  0.55650000  0.30580000  0.90190000  1
  C  C60  1  0.34696000  0.08996000  0.44026000  1
  C  C61  1  0.56916000  0.29976000  0.34846000  1
  C  C62  1  0.38756000  0.99486000  0.21336000  1
  C  C63  1  0.28614000  0.80664000  0.33644000  1
  C  C64  1  0.38583000  0.05113000  0.15843000  1
  C  C65  1  0.43400000  0.07970000  0.13170000  1
  C  C66  1  0.23653000  0.86253000  0.32563000  1
  C  C67  1  0.34991000  0.14451000  0.44081000  1
  C  C68  1  0.24680000  0.90960000  0.55740000  1
  C  C69  1  0.56723000  0.25183000  0.33673000  1
  C  C70  1  0.31020000  0.81640000  0.55210000  1
  C  C71  1  0.33950000  0.07780000  0.12970000  1
  C  C72  1  0.25330000  0.85400000  0.55520000  1
  C  C73  1  0.34240000  0.84610000  0.55500000  1
  C  C74  1  0.30580000  0.90190000  0.55650000  1
  C  C75  1  0.08996000  0.44026000  0.34696000  1
  C  C76  1  0.29976000  0.34846000  0.56916000  1
  C  C77  1  0.99486000  0.21336000  0.38756000  1
  C  C78  1  0.80664000  0.33644000  0.28614000  1
  C  C79  1  0.05113000  0.15843000  0.38583000  1
  C  C80  1  0.07970000  0.13170000  0.43400000  1
  C  C81  1  0.86253000  0.32563000  0.23653000  1
  C  C82  1  0.14451000  0.44081000  0.34991000  1
  C  C83  1  0.90960000  0.55740000  0.24680000  1
  C  C84  1  0.25183000  0.33673000  0.56723000  1
  C  C85  1  0.81640000  0.55210000  0.31020000  1
  C  C86  1  0.07780000  0.12970000  0.33950000  1
  C  C87  1  0.85400000  0.55520000  0.25330000  1
  C  C88  1  0.84610000  0.55500000  0.34240000  1
  C  C89  1  0.90190000  0.55650000  0.30580000  1
  C  C90  1  0.08996000  0.34696000  0.44026000  1
  C  C91  1  0.29976000  0.56916000  0.34846000  1
  C  C92  1  0.99486000  0.38756000  0.21336000  1
  C  C93  1  0.80664000  0.28614000  0.33644000  1
  C  C94  1  0.05113000  0.38583000  0.15843000  1
  C  C95  1  0.07970000  0.43400000  0.13170000  1
  C  C96  1  0.86253000  0.23653000  0.32563000  1
  C  C97  1  0.14451000  0.34991000  0.44081000  1
  C  C98  1  0.90960000  0.24680000  0.55740000  1
  C  C99  1  0.25183000  0.56723000  0.33673000  1
  C  C100  1  0.81640000  0.31020000  0.55210000  1
  C  C101  1  0.07780000  0.33950000  0.12970000  1
  C  C102  1  0.85400000  0.25330000  0.55520000  1
  C  C103  1  0.84610000  0.34240000  0.55500000  1
  C  C104  1  0.90190000  0.30580000  0.55650000  1
  C  C105  1  0.44026000  0.08996000  0.34696000  1
  C  C106  1  0.34846000  0.29976000  0.56916000  1
  C  C107  1  0.21336000  0.99486000  0.38756000  1
  C  C108  1  0.33644000  0.80664000  0.28614000  1
  C  C109  1  0.15843000  0.05113000  0.38583000  1
  C  C110  1  0.13170000  0.07970000  0.43400000  1
  C  C111  1  0.32563000  0.86253000  0.23653000  1
  C  C112  1  0.44081000  0.14451000  0.34991000  1
  C  C113  1  0.55740000  0.90960000  0.24680000  1
  C  C114  1  0.33673000  0.25183000  0.56723000  1
  C  C115  1  0.55210000  0.81640000  0.31020000  1
  C  C116  1  0.12970000  0.07780000  0.33950000  1
  C  C117  1  0.55520000  0.85400000  0.25330000  1
  C  C118  1  0.55500000  0.84610000  0.34240000  1
  C  C119  1  0.55650000  0.90190000  0.30580000  1
  C  C120  1  0.34696000  0.44026000  0.08996000  1
  C  C121  1  0.56916000  0.34846000  0.29976000  1
  C  C122  1  0.38756000  0.21336000  0.99486000  1
  C  C123  1  0.28614000  0.33644000  0.80664000  1
  C  C124  1  0.38583000  0.15843000  0.05113000  1
  C  C125  1  0.43400000  0.13170000  0.07970000  1
  C  C126  1  0.23653000  0.32563000  0.86253000  1
  C  C127  1  0.34991000  0.44081000  0.14451000  1
  C  C128  1  0.24680000  0.55740000  0.90960000  1
  C  C129  1  0.56723000  0.33673000  0.25183000  1
  C  C130  1  0.31020000  0.55210000  0.81640000  1
  C  C131  1  0.33950000  0.12970000  0.07780000  1
  C  C132  1  0.25330000  0.55520000  0.85400000  1
  C  C133  1  0.34240000  0.55500000  0.84610000  1
  C  C134  1  0.30580000  0.55650000  0.90190000  1
  C  C135  1  0.55974000  0.65304000  0.91004000  1
  C  C136  1  0.65154000  0.43084000  0.70024000  1
  C  C137  1  0.78664000  0.61244000  0.00514000  1
  C  C138  1  0.66356000  0.71386000  0.19336000  1
  C  C139  1  0.84157000  0.61417000  0.94887000  1
  C  C140  1  0.86830000  0.56600000  0.92030000  1
  C  C141  1  0.67437000  0.76347000  0.13747000  1
  C  C142  1  0.55919000  0.65009000  0.85549000  1
  C  C143  1  0.44260000  0.75320000  0.09040000  1
  C  C144  1  0.66327000  0.43277000  0.74817000  1
  C  C145  1  0.44790000  0.68980000  0.18360000  1
  C  C146  1  0.87030000  0.66050000  0.92220000  1
  C  C147  1  0.44480000  0.74670000  0.14600000  1
  C  C148  1  0.44500000  0.65760000  0.15390000  1
  C  C149  1  0.44350000  0.69420000  0.09810000  1
  C  C150  1  0.65304000  0.91004000  0.55974000  1
  C  C151  1  0.43084000  0.70024000  0.65154000  1
  C  C152  1  0.61244000  0.00514000  0.78664000  1
  C  C153  1  0.71386000  0.19336000  0.66356000  1
  C  C154  1  0.61417000  0.94887000  0.84157000  1
  C  C155  1  0.56600000  0.92030000  0.86830000  1
  C  C156  1  0.76347000  0.13747000  0.67437000  1
  C  C157  1  0.65009000  0.85549000  0.55919000  1
  C  C158  1  0.75320000  0.09040000  0.44260000  1
  C  C159  1  0.43277000  0.74817000  0.66327000  1
  C  C160  1  0.68980000  0.18360000  0.44790000  1
  C  C161  1  0.66050000  0.92220000  0.87030000  1
  C  C162  1  0.74670000  0.14600000  0.44480000  1
  C  C163  1  0.65760000  0.15390000  0.44500000  1
  C  C164  1  0.69420000  0.09810000  0.44350000  1
  C  C165  1  0.91004000  0.55974000  0.65304000  1
  C  C166  1  0.70024000  0.65154000  0.43084000  1
  C  C167  1  0.00514000  0.78664000  0.61244000  1
  C  C168  1  0.19336000  0.66356000  0.71386000  1
  C  C169  1  0.94887000  0.84157000  0.61417000  1
  C  C170  1  0.92030000  0.86830000  0.56600000  1
  C  C171  1  0.13747000  0.67437000  0.76347000  1
  C  C172  1  0.85549000  0.55919000  0.65009000  1
  C  C173  1  0.09040000  0.44260000  0.75320000  1
  C  C174  1  0.74817000  0.66327000  0.43277000  1
  C  C175  1  0.18360000  0.44790000  0.68980000  1
  C  C176  1  0.92220000  0.87030000  0.66050000  1
  C  C177  1  0.14600000  0.44480000  0.74670000  1
  C  C178  1  0.15390000  0.44500000  0.65760000  1
  C  C179  1  0.09810000  0.44350000  0.69420000  1
  C  C180  1  0.72300000  0.43550000  0.72300000  1
  C  C181  1  0.72300000  0.72300000  0.43550000  1
  C  C182  1  0.43550000  0.72300000  0.72300000  1
  C  C183  1  0.27700000  0.56450000  0.27700000  1
  C  C184  1  0.56450000  0.27700000  0.27700000  1
  C  C185  1  0.27700000  0.27700000  0.56450000  1
  C  C186  1  0.77549000  0.59904000  0.59904000  1
  C  C187  1  0.83093000  0.60258000  0.60258000  1
  C  C188  1  0.93614000  0.60789000  0.60789000  1
  C  C189  1  0.99589000  0.60794000  0.60794000  1
  C  C190  1  0.10095000  0.73760000  0.73760000  1
  C  C191  1  0.59904000  0.77549000  0.59904000  1
  C  C192  1  0.60258000  0.83093000  0.60258000  1
  C  C193  1  0.60789000  0.93614000  0.60789000  1
  C  C194  1  0.60794000  0.99589000  0.60794000  1
  C  C195  1  0.73760000  0.10095000  0.73760000  1
  C  C196  1  0.59904000  0.59904000  0.77549000  1
  C  C197  1  0.60258000  0.60258000  0.83093000  1
  C  C198  1  0.60789000  0.60789000  0.93614000  1
  C  C199  1  0.60794000  0.60794000  0.99589000  1
  C  C200  1  0.73760000  0.73760000  0.10095000  1
  C  C201  1  0.40096000  0.40096000  0.22451000  1
  C  C202  1  0.39742000  0.39742000  0.16907000  1
  C  C203  1  0.39211000  0.39211000  0.06386000  1
  C  C204  1  0.39206000  0.39206000  0.00411000  1
  C  C205  1  0.26240000  0.26240000  0.89905000  1
  C  C206  1  0.40096000  0.22451000  0.40096000  1
  C  C207  1  0.39742000  0.16907000  0.39742000  1
  C  C208  1  0.39211000  0.06386000  0.39211000  1
  C  C209  1  0.39206000  0.00411000  0.39206000  1
  C  C210  1  0.26240000  0.89905000  0.26240000  1
  C  C211  1  0.22451000  0.40096000  0.40096000  1
  C  C212  1  0.16907000  0.39742000  0.39742000  1
  C  C213  1  0.06386000  0.39211000  0.39211000  1
  C  C214  1  0.00411000  0.39206000  0.39206000  1
  C  C215  1  0.89905000  0.26240000  0.26240000  1
  H  H216  1  0.18680000  0.71080000  0.55450000  1
  H  H217  1  0.70320000  0.42970000  0.61300000  1
  H  H218  1  0.22680000  0.71620000  0.62490000  1
  H  H219  1  0.12630000  0.80490000  0.64630000  1
  H  H220  1  0.05440000  0.78980000  0.44080000  1
  H  H221  1  0.78960000  0.43240000  0.63550000  1
  H  H222  1  0.22460000  0.67330000  0.45160000  1
  H  H223  1  0.15600000  0.77930000  0.44420000  1
  H  H224  1  0.17150000  0.61550000  0.44430000  1
  H  H225  1  0.06710000  0.68270000  0.44310000  1
  H  H226  1  0.47284667  0.05903667  0.15384667  1
  H  H227  1  0.30040667  0.05616333  0.14960000  1
  H  H228  1  0.47821333  0.30867333  0.06827333  1
  H  H229  1  0.47764000  0.31248333  0.16840667  1
  H  H230  1  0.55450000  0.18680000  0.71080000  1
  H  H231  1  0.61300000  0.70320000  0.42970000  1
  H  H232  1  0.62490000  0.22680000  0.71620000  1
  H  H233  1  0.64630000  0.12630000  0.80490000  1
  H  H234  1  0.44080000  0.05440000  0.78980000  1
  H  H235  1  0.63550000  0.78960000  0.43240000  1
  H  H236  1  0.45160000  0.22460000  0.67330000  1
  H  H237  1  0.44420000  0.15600000  0.77930000  1
  H  H238  1  0.44430000  0.17150000  0.61550000  1
  H  H239  1  0.44310000  0.06710000  0.68270000  1
  H  H240  1  0.15384667  0.47284667  0.05903667  1
  H  H241  1  0.14960000  0.30040667  0.05616333  1
  H  H242  1  0.06827333  0.47821333  0.30867333  1
  H  H243  1  0.16840667  0.47764333  0.31248000  1
  H  H244  1  0.71080000  0.55450000  0.18680000  1
  H  H245  1  0.42970000  0.61300000  0.70320000  1
  H  H246  1  0.71620000  0.62490000  0.22680000  1
  H  H247  1  0.80490000  0.64630000  0.12630000  1
  H  H248  1  0.78980000  0.44080000  0.05440000  1
  H  H249  1  0.43240000  0.63550000  0.78960000  1
  H  H250  1  0.67330000  0.45160000  0.22460000  1
  H  H251  1  0.77930000  0.44420000  0.15600000  1
  H  H252  1  0.61550000  0.44430000  0.17150000  1
  H  H253  1  0.68270000  0.44310000  0.06710000  1
  H  H254  1  0.05903667  0.15384667  0.47284667  1
  H  H255  1  0.05616333  0.14960000  0.30040667  1
  H  H256  1  0.30867333  0.06827333  0.47821333  1
  H  H257  1  0.31248000  0.16841000  0.47764000  1
  H  H258  1  0.44550000  0.28920000  0.81320000  1
  H  H259  1  0.38700000  0.57030000  0.29680000  1
  H  H260  1  0.37510000  0.28380000  0.77320000  1
  H  H261  1  0.35370000  0.19510000  0.87370000  1
  H  H262  1  0.55920000  0.21020000  0.94560000  1
  H  H263  1  0.36450000  0.56760000  0.21040000  1
  H  H264  1  0.54840000  0.32670000  0.77540000  1
  H  H265  1  0.55580000  0.22070000  0.84400000  1
  H  H266  1  0.55570000  0.38450000  0.82850000  1
  H  H267  1  0.55690000  0.31730000  0.93290000  1
  H  H268  1  0.84615333  0.94096333  0.52715333  1
  H  H269  1  0.85040000  0.94383667  0.69959333  1
  H  H270  1  0.93172667  0.69132667  0.52178667  1
  H  H271  1  0.83159333  0.68751667  0.52236000  1
  H  H272  1  0.28920000  0.81320000  0.44550000  1
  H  H273  1  0.57030000  0.29680000  0.38700000  1
  H  H274  1  0.28380000  0.77320000  0.37510000  1
  H  H275  1  0.19510000  0.87370000  0.35370000  1
  H  H276  1  0.21020000  0.94560000  0.55920000  1
  H  H277  1  0.56760000  0.21040000  0.36450000  1
  H  H278  1  0.32670000  0.77540000  0.54840000  1
  H  H279  1  0.22070000  0.84400000  0.55580000  1
  H  H280  1  0.38450000  0.82850000  0.55570000  1
  H  H281  1  0.31730000  0.93290000  0.55690000  1
  H  H282  1  0.94096333  0.52715333  0.84615333  1
  H  H283  1  0.94383667  0.69959333  0.85040000  1
  H  H284  1  0.69132667  0.52178667  0.93172667  1
  H  H285  1  0.68752000  0.52235667  0.83159333  1
  H  H286  1  0.81320000  0.44550000  0.28920000  1
  H  H287  1  0.29680000  0.38700000  0.57030000  1
  H  H288  1  0.77320000  0.37510000  0.28380000  1
  H  H289  1  0.87370000  0.35370000  0.19510000  1
  H  H290  1  0.94560000  0.55920000  0.21020000  1
  H  H291  1  0.21040000  0.36450000  0.56760000  1
  H  H292  1  0.77540000  0.54840000  0.32670000  1
  H  H293  1  0.84400000  0.55580000  0.22070000  1
  H  H294  1  0.82850000  0.55570000  0.38450000  1
  H  H295  1  0.93290000  0.55690000  0.31730000  1
  H  H296  1  0.52715333  0.84615333  0.94096333  1
  H  H297  1  0.69959333  0.85040000  0.94383667  1
  H  H298  1  0.52178667  0.93172667  0.69132667  1
  H  H299  1  0.52236000  0.83159000  0.68752000  1
  H  H300  1  0.81320000  0.28920000  0.44550000  1
  H  H301  1  0.29680000  0.57030000  0.38700000  1
  H  H302  1  0.77320000  0.28380000  0.37510000  1
  H  H303  1  0.87370000  0.19510000  0.35370000  1
  H  H304  1  0.94560000  0.21020000  0.55920000  1
  H  H305  1  0.21040000  0.56760000  0.36450000  1
  H  H306  1  0.77540000  0.32670000  0.54840000  1
  H  H307  1  0.84400000  0.22070000  0.55580000  1
  H  H308  1  0.82850000  0.38450000  0.55570000  1
  H  H309  1  0.93290000  0.31730000  0.55690000  1
  H  H310  1  0.52715333  0.94096333  0.84615333  1
  H  H311  1  0.69959333  0.94383667  0.85040000  1
  H  H312  1  0.52178667  0.69132667  0.93172667  1
  H  H313  1  0.52236000  0.68751667  0.83159333  1
  H  H314  1  0.44550000  0.81320000  0.28920000  1
  H  H315  1  0.38700000  0.29680000  0.57030000  1
  H  H316  1  0.37510000  0.77320000  0.28380000  1
  H  H317  1  0.35370000  0.87370000  0.19510000  1
  H  H318  1  0.55920000  0.94560000  0.21020000  1
  H  H319  1  0.36450000  0.21040000  0.56760000  1
  H  H320  1  0.54840000  0.77540000  0.32670000  1
  H  H321  1  0.55580000  0.84400000  0.22070000  1
  H  H322  1  0.55570000  0.82850000  0.38450000  1
  H  H323  1  0.55690000  0.93290000  0.31730000  1
  H  H324  1  0.84615333  0.52715333  0.94096333  1
  H  H325  1  0.85040000  0.69959333  0.94383667  1
  H  H326  1  0.93172667  0.52178667  0.69132667  1
  H  H327  1  0.83159333  0.52235667  0.68752000  1
  H  H328  1  0.28920000  0.44550000  0.81320000  1
  H  H329  1  0.57030000  0.38700000  0.29680000  1
  H  H330  1  0.28380000  0.37510000  0.77320000  1
  H  H331  1  0.19510000  0.35370000  0.87370000  1
  H  H332  1  0.21020000  0.55920000  0.94560000  1
  H  H333  1  0.56760000  0.36450000  0.21040000  1
  H  H334  1  0.32670000  0.54840000  0.77540000  1
  H  H335  1  0.22070000  0.55580000  0.84400000  1
  H  H336  1  0.38450000  0.55570000  0.82850000  1
  H  H337  1  0.31730000  0.55690000  0.93290000  1
  H  H338  1  0.94096333  0.84615333  0.52715333  1
  H  H339  1  0.94383667  0.85040000  0.69959333  1
  H  H340  1  0.69132667  0.93172667  0.52178667  1
  H  H341  1  0.68752000  0.83159000  0.52236000  1
  H  H342  1  0.55450000  0.71080000  0.18680000  1
  H  H343  1  0.61300000  0.42970000  0.70320000  1
  H  H344  1  0.62490000  0.71620000  0.22680000  1
  H  H345  1  0.64630000  0.80490000  0.12630000  1
  H  H346  1  0.44080000  0.78980000  0.05440000  1
  H  H347  1  0.63550000  0.43240000  0.78960000  1
  H  H348  1  0.45160000  0.67330000  0.22460000  1
  H  H349  1  0.44420000  0.77930000  0.15600000  1
  H  H350  1  0.44430000  0.61550000  0.17150000  1
  H  H351  1  0.44310000  0.68270000  0.06710000  1
  H  H352  1  0.15384667  0.05903667  0.47284667  1
  H  H353  1  0.14960000  0.05616333  0.30040667  1
  H  H354  1  0.06827333  0.30867333  0.47821333  1
  H  H355  1  0.16840667  0.31248333  0.47764000  1
  H  H356  1  0.71080000  0.18680000  0.55450000  1
  H  H357  1  0.42970000  0.70320000  0.61300000  1
  H  H358  1  0.71620000  0.22680000  0.62490000  1
  H  H359  1  0.80490000  0.12630000  0.64630000  1
  H  H360  1  0.78980000  0.05440000  0.44080000  1
  H  H361  1  0.43240000  0.78960000  0.63550000  1
  H  H362  1  0.67330000  0.22460000  0.45160000  1
  H  H363  1  0.77930000  0.15600000  0.44420000  1
  H  H364  1  0.61550000  0.17150000  0.44430000  1
  H  H365  1  0.68270000  0.06710000  0.44310000  1
  H  H366  1  0.05903667  0.47284667  0.15384667  1
  H  H367  1  0.05616333  0.30040667  0.14960000  1
  H  H368  1  0.30867333  0.47821333  0.06827333  1
  H  H369  1  0.31248000  0.47764333  0.16840667  1
  H  H370  1  0.18680000  0.55450000  0.71080000  1
  H  H371  1  0.70320000  0.61300000  0.42970000  1
  H  H372  1  0.22680000  0.62490000  0.71620000  1
  H  H373  1  0.12630000  0.64630000  0.80490000  1
  H  H374  1  0.05440000  0.44080000  0.78980000  1
  H  H375  1  0.78960000  0.63550000  0.43240000  1
  H  H376  1  0.22460000  0.45160000  0.67330000  1
  H  H377  1  0.15600000  0.44420000  0.77930000  1
  H  H378  1  0.17150000  0.44430000  0.61550000  1
  H  H379  1  0.06710000  0.44310000  0.68270000  1
  H  H380  1  0.47284667  0.15384667  0.05903667  1
  H  H381  1  0.30040667  0.14960000  0.05616333  1
  H  H382  1  0.47821333  0.06827333  0.30867333  1
  H  H383  1  0.47764000  0.16841000  0.31248000  1
  H  H384  1  0.74420000  0.43870000  0.74420000  1
  H  H385  1  0.74420000  0.74420000  0.43870000  1
  H  H386  1  0.43870000  0.74420000  0.74420000  1
  H  H387  1  0.25580000  0.56130000  0.25580000  1
  H  H388  1  0.56130000  0.25580000  0.25580000  1
  H  H389  1  0.25580000  0.25580000  0.56130000  1
  H  H390  1  0.69700000  0.54125000  0.54125000  1
  H  H391  1  0.17790000  0.55415000  0.55415000  1
  H  H392  1  0.05950000  0.75885000  0.75885000  1
  H  H393  1  0.54125000  0.69700000  0.54125000  1
  H  H394  1  0.55415000  0.17790000  0.55415000  1
  H  H395  1  0.75885000  0.05950000  0.75885000  1
  H  H396  1  0.54125000  0.54125000  0.69700000  1
  H  H397  1  0.55415000  0.55415000  0.17790000  1
  H  H398  1  0.75885000  0.75885000  0.05950000  1
  H  H399  1  0.45875000  0.45875000  0.30300000  1
  H  H400  1  0.44585000  0.44585000  0.82210000  1
  H  H401  1  0.24115000  0.24115000  0.94050000  1
  H  H402  1  0.45875000  0.30300000  0.45875000  1
  H  H403  1  0.44585000  0.82210000  0.44585000  1
  H  H404  1  0.24115000  0.94050000  0.24115000  1
  H  H405  1  0.30300000  0.45875000  0.45875000  1
  H  H406  1  0.82210000  0.44585000  0.44585000  1
  H  H407  1  0.94050000  0.24115000  0.24115000  1
  O  O408  1  0.75276000  0.55416000  0.64076000  1
  O  O409  1  0.15077000  0.69697000  0.57967000  1
  O  O410  1  0.01960000  0.65040000  0.56460000  1
  O  O411  1  0.03110000  0.65310000  0.76490000  1
  O  O412  1  0.02642000  0.56712000  0.76412000  1
  O  O413  1  0.64076000  0.75276000  0.55416000  1
  O  O414  1  0.57967000  0.15077000  0.69697000  1
  O  O415  1  0.56460000  0.01960000  0.65040000  1
  O  O416  1  0.76490000  0.03110000  0.65310000  1
  O  O417  1  0.76412000  0.02642000  0.56712000  1
  O  O418  1  0.55416000  0.64076000  0.75276000  1
  O  O419  1  0.69697000  0.57967000  0.15077000  1
  O  O420  1  0.65040000  0.56460000  0.01960000  1
  O  O421  1  0.65310000  0.76490000  0.03110000  1
  O  O422  1  0.56712000  0.76412000  0.02642000  1
  O  O423  1  0.35924000  0.44584000  0.24724000  1
  O  O424  1  0.42033000  0.30303000  0.84923000  1
  O  O425  1  0.43540000  0.34960000  0.98040000  1
  O  O426  1  0.23510000  0.34690000  0.96890000  1
  O  O427  1  0.23588000  0.43288000  0.97358000  1
  O  O428  1  0.44584000  0.24724000  0.35924000  1
  O  O429  1  0.30303000  0.84923000  0.42033000  1
  O  O430  1  0.34960000  0.98040000  0.43540000  1
  O  O431  1  0.34690000  0.96890000  0.23510000  1
  O  O432  1  0.43288000  0.97358000  0.23588000  1
  O  O433  1  0.24724000  0.35924000  0.44584000  1
  O  O434  1  0.84923000  0.42033000  0.30303000  1
  O  O435  1  0.98040000  0.43540000  0.34960000  1
  O  O436  1  0.96890000  0.23510000  0.34690000  1
  O  O437  1  0.97358000  0.23588000  0.43288000  1
  O  O438  1  0.24724000  0.44584000  0.35924000  1
  O  O439  1  0.84923000  0.30303000  0.42033000  1
  O  O440  1  0.98040000  0.34960000  0.43540000  1
  O  O441  1  0.96890000  0.34690000  0.23510000  1
  O  O442  1  0.97358000  0.43288000  0.23588000  1
  O  O443  1  0.35924000  0.24724000  0.44584000  1
  O  O444  1  0.42033000  0.84923000  0.30303000  1
  O  O445  1  0.43540000  0.98040000  0.34960000  1
  O  O446  1  0.23510000  0.96890000  0.34690000  1
  O  O447  1  0.23588000  0.97358000  0.43288000  1
  O  O448  1  0.44584000  0.35924000  0.24724000  1
  O  O449  1  0.30303000  0.42033000  0.84923000  1
  O  O450  1  0.34960000  0.43540000  0.98040000  1
  O  O451  1  0.34690000  0.23510000  0.96890000  1
  O  O452  1  0.43288000  0.23588000  0.97358000  1
  O  O453  1  0.64076000  0.55416000  0.75276000  1
  O  O454  1  0.57967000  0.69697000  0.15077000  1
  O  O455  1  0.56460000  0.65040000  0.01960000  1
  O  O456  1  0.76490000  0.65310000  0.03110000  1
  O  O457  1  0.76412000  0.56712000  0.02642000  1
  O  O458  1  0.55416000  0.75276000  0.64076000  1
  O  O459  1  0.69697000  0.15077000  0.57967000  1
  O  O460  1  0.65040000  0.01960000  0.56460000  1
  O  O461  1  0.65310000  0.03110000  0.76490000  1
  O  O462  1  0.56712000  0.02642000  0.76412000  1
  O  O463  1  0.75276000  0.64076000  0.55416000  1
  O  O464  1  0.15077000  0.57967000  0.69697000  1
  O  O465  1  0.01960000  0.56460000  0.65040000  1
  O  O466  1  0.03110000  0.76490000  0.65310000  1
  O  O467  1  0.02642000  0.76412000  0.56712000  1
  O  O468  1  0.68377000  0.56657000  0.56657000  1
  O  O469  1  0.06363000  0.64763000  0.64763000  1
  O  O470  1  0.14396000  0.57916000  0.57916000  1
  O  O471  1  0.56657000  0.68377000  0.56657000  1
  O  O472  1  0.64763000  0.06363000  0.64763000  1
  O  O473  1  0.57916000  0.14396000  0.57916000  1
  O  O474  1  0.56657000  0.56657000  0.68377000  1
  O  O475  1  0.64763000  0.64763000  0.06363000  1
  O  O476  1  0.57916000  0.57916000  0.14396000  1
  O  O477  1  0.43343000  0.43343000  0.31623000  1
  O  O478  1  0.35237000  0.35237000  0.93637000  1
  O  O479  1  0.42084000  0.42084000  0.85604000  1
  O  O480  1  0.43343000  0.31623000  0.43343000  1
  O  O481  1  0.35237000  0.93637000  0.35237000  1
  O  O482  1  0.42084000  0.85604000  0.42084000  1
  O  O483  1  0.31623000  0.43343000  0.43343000  1
  O  O484  1  0.93637000  0.35237000  0.35237000  1
  O  O485  1  0.85604000  0.42084000  0.42084000  1
  O  O486  1  0.63515667  0.63515667  0.63515667  1
  O  O487  1  0.36484333  0.36484333  0.36484333  1
  Zr  Zr488  1  0.09685000  0.67758000  0.55005000  1
  Zr  Zr489  1  0.55005000  0.09685000  0.67758000  1
  Zr  Zr490  1  0.67758000  0.55005000  0.09685000  1
  Zr  Zr491  1  0.44995000  0.32242000  0.90315000  1
  Zr  Zr492  1  0.32242000  0.90315000  0.44995000  1
  Zr  Zr493  1  0.90315000  0.44995000  0.32242000  1
  Zr  Zr494  1  0.90315000  0.32242000  0.44995000  1
  Zr  Zr495  1  0.44995000  0.90315000  0.32242000  1
  Zr  Zr496  1  0.32242000  0.44995000  0.90315000  1
  Zr  Zr497  1  0.55005000  0.67758000  0.09685000  1
  Zr  Zr498  1  0.67758000  0.09685000  0.55005000  1
  Zr  Zr499  1  0.09685000  0.55005000  0.67758000  1
  Zr  Zr500  1  0.66544000  0.53778000  0.66544000  1
  Zr  Zr501  1  0.66544000  0.66544000  0.53778000  1
  Zr  Zr502  1  0.53778000  0.66544000  0.66544000  1
  Zr  Zr503  1  0.33456000  0.46222000  0.33456000  1
  Zr  Zr504  1  0.46222000  0.33456000  0.33456000  1
  Zr  Zr505  1  0.33456000  0.33456000  0.46222000  1
  Zr  Zr506  1  0.10608000  0.67838000  0.67838000  1
  Zr  Zr507  1  0.67838000  0.10608000  0.67838000  1
  Zr  Zr508  1  0.67838000  0.67838000  0.10608000  1
  Zr  Zr509  1  0.32162000  0.32162000  0.89392000  1
  Zr  Zr510  1  0.32162000  0.89392000  0.32162000  1
  Zr  Zr511  1  0.89392000  0.32162000  0.32162000  1
