# generated using pymatgen
data_Zr18V3H212(C157O50)2
_symmetry_space_group_name_H-M   'P 1'
_cell_length_a   16.43000000
_cell_length_b   39.55400000
_cell_length_c   39.55400000
_cell_angle_alpha   120.00000000
_cell_angle_beta   90.00000000
_cell_angle_gamma   90.00000000
_symmetry_Int_Tables_number   1
_chemical_formula_structural   Zr18V3H212(C157O50)2
_chemical_formula_sum   'Zr18 V3 H212 C314 O100'
_cell_volume   22261.22265948
_cell_formula_units_Z   1
loop_
 _symmetry_equiv_pos_site_id
 _symmetry_equiv_pos_as_xyz
  1  'x, y, z'
loop_
 _atom_site_type_symbol
 _atom_site_label
 _atom_site_symmetry_multiplicity
 _atom_site_fract_x
 _atom_site_fract_y
 _atom_site_fract_z
 _atom_site_occupancy
  Zr  Zr0  1  0.39196000  0.45524000  0.45524000  1
  Zr  Zr1  1  0.39196000  0.00000000  0.54476000  1
  Zr  Zr2  1  0.39196000  0.54476000  1.00000000  1
  Zr  Zr3  1  0.39196000  0.54476000  0.54476000  1
  Zr  Zr4  1  0.39196000  0.00000000  0.45524000  1
  Zr  Zr5  1  0.39196000  0.45524000  0.00000000  1
  Zr  Zr6  1  0.60804000  0.00000000  0.54476000  1
  Zr  Zr7  1  0.60804000  0.45524000  0.45524000  1
  Zr  Zr8  1  0.60804000  0.54476000  1.00000000  1
  Zr  Zr9  1  0.60804000  0.00000000  0.45524000  1
  Zr  Zr10  1  0.60804000  0.54476000  0.54476000  1
  Zr  Zr11  1  0.60804000  0.45524000  0.00000000  1
  Zr  Zr12  1  0.50000000  0.53610000  0.46390000  1
  Zr  Zr13  1  0.50000000  0.92780000  0.46390000  1
  Zr  Zr14  1  0.50000000  0.53610000  0.07220000  1
  Zr  Zr15  1  0.50000000  0.46390000  0.53610000  1
  Zr  Zr16  1  0.50000000  0.07220000  0.53610000  1
  Zr  Zr17  1  0.50000000  0.46390000  0.92780000  1
  V  V18  1  0.81880000  0.45480000  0.97010000  1
  V  V19  1  0.17100000  0.00000000  0.45380000  1
  V  V20  1  0.23100000  0.51560000  0.48440000  1
  H  H21  1  0.74896000  0.64638000  0.55761000  1
  H  H22  1  0.82849000  0.69491000  0.55664000  1
  H  H23  1  0.71310000  0.67839000  0.45861000  1
  H  H24  1  0.63232000  0.63004000  0.46004000  1
  H  H25  1  0.93099000  0.66904000  0.50425000  1
  H  H26  1  0.21934000  0.36752000  0.39052000  1
  H  H27  1  0.08391000  0.43070000  0.40734000  1
  H  H28  1  0.32431000  0.32023000  0.34359000  1
  H  H29  1  0.74896000  0.91123000  0.35362000  1
  H  H30  1  0.82849000  0.86173000  0.30509000  1
  H  H31  1  0.71310000  0.78022000  0.32161000  1
  H  H32  1  0.63232000  0.83000000  0.36996000  1
  H  H33  1  0.93099000  0.83521000  0.33096000  1
  H  H34  1  0.21934000  0.02300000  0.63248000  1
  H  H35  1  0.08391000  0.97664000  0.56930000  1
  H  H36  1  0.32431000  0.02336000  0.67977000  1
  H  H37  1  0.74896000  0.44239000  0.08877000  1
  H  H38  1  0.82849000  0.44336000  0.13827000  1
  H  H39  1  0.71310000  0.54139000  0.21978000  1
  H  H40  1  0.63232000  0.53996000  0.17000000  1
  H  H41  1  0.93099000  0.49575000  0.16479000  1
  H  H42  1  0.21934000  0.60948000  0.97700000  1
  H  H43  1  0.08391000  0.59266000  0.02336000  1
  H  H44  1  0.32431000  0.65641000  0.97664000  1
  H  H45  1  0.74896000  0.35362000  0.44239000  1
  H  H46  1  0.82849000  0.30509000  0.44336000  1
  H  H47  1  0.71310000  0.32161000  0.54139000  1
  H  H48  1  0.63232000  0.36996000  0.53996000  1
  H  H49  1  0.93099000  0.33096000  0.49575000  1
  H  H50  1  0.21934000  0.63248000  0.60948000  1
  H  H51  1  0.08391000  0.56930000  0.59266000  1
  H  H52  1  0.32431000  0.67977000  0.65641000  1
  H  H53  1  0.74896000  0.08877000  0.64638000  1
  H  H54  1  0.82849000  0.13827000  0.69491000  1
  H  H55  1  0.71310000  0.21978000  0.67839000  1
  H  H56  1  0.63232000  0.17000000  0.63004000  1
  H  H57  1  0.93099000  0.16479000  0.66904000  1
  H  H58  1  0.74896000  0.55761000  0.91123000  1
  H  H59  1  0.82849000  0.55664000  0.86173000  1
  H  H60  1  0.71310000  0.45861000  0.78022000  1
  H  H61  1  0.63232000  0.46004000  0.83000000  1
  H  H62  1  0.93099000  0.50425000  0.83521000  1
  H  H63  1  0.21934000  0.39052000  0.02300000  1
  H  H64  1  0.08391000  0.40734000  0.97664000  1
  H  H65  1  0.32431000  0.34359000  0.02336000  1
  H  H66  1  0.25104000  0.08877000  0.44239000  1
  H  H67  1  0.17151000  0.13827000  0.44336000  1
  H  H68  1  0.28690000  0.21978000  0.54139000  1
  H  H69  1  0.36768000  0.17000000  0.53996000  1
  H  H70  1  0.06901000  0.16479000  0.49575000  1
  H  H71  1  0.78066000  0.97700000  0.60948000  1
  H  H72  1  0.91609000  0.02336000  0.59266000  1
  H  H73  1  0.67569000  0.97664000  0.65641000  1
  H  H74  1  0.25104000  0.55761000  0.64638000  1
  H  H75  1  0.17151000  0.55664000  0.69491000  1
  H  H76  1  0.28690000  0.45861000  0.67839000  1
  H  H77  1  0.36768000  0.46004000  0.63004000  1
  H  H78  1  0.06901000  0.50425000  0.66904000  1
  H  H79  1  0.78066000  0.39052000  0.36752000  1
  H  H80  1  0.91609000  0.40734000  0.43070000  1
  H  H81  1  0.67569000  0.34359000  0.32023000  1
  H  H82  1  0.25104000  0.35362000  0.91123000  1
  H  H83  1  0.17151000  0.30509000  0.86173000  1
  H  H84  1  0.28690000  0.32161000  0.78022000  1
  H  H85  1  0.36768000  0.36996000  0.83000000  1
  H  H86  1  0.06901000  0.33096000  0.83521000  1
  H  H87  1  0.78066000  0.63248000  0.02300000  1
  H  H88  1  0.91609000  0.56930000  0.97664000  1
  H  H89  1  0.67569000  0.67977000  0.02336000  1
  H  H90  1  0.25104000  0.91123000  0.55761000  1
  H  H91  1  0.17151000  0.86173000  0.55664000  1
  H  H92  1  0.28690000  0.78022000  0.45861000  1
  H  H93  1  0.36768000  0.83000000  0.46004000  1
  H  H94  1  0.06901000  0.83521000  0.50425000  1
  H  H95  1  0.78066000  0.02300000  0.39052000  1
  H  H96  1  0.91609000  0.97664000  0.40734000  1
  H  H97  1  0.67569000  0.02336000  0.34359000  1
  H  H98  1  0.25104000  0.44239000  0.35362000  1
  H  H99  1  0.17151000  0.44336000  0.30509000  1
  H  H100  1  0.28690000  0.54139000  0.32161000  1
  H  H101  1  0.36768000  0.53996000  0.36996000  1
  H  H102  1  0.06901000  0.49575000  0.33096000  1
  H  H103  1  0.78066000  0.60948000  0.63248000  1
  H  H104  1  0.91609000  0.59266000  0.56930000  1
  H  H105  1  0.67569000  0.65641000  0.67977000  1
  H  H106  1  0.25104000  0.64638000  0.08877000  1
  H  H107  1  0.17151000  0.69491000  0.13827000  1
  H  H108  1  0.28690000  0.67839000  0.21978000  1
  H  H109  1  0.36768000  0.63004000  0.17000000  1
  H  H110  1  0.06901000  0.66904000  0.16479000  1
  H  H111  1  0.25104000  0.35362000  0.44239000  1
  H  H112  1  0.17151000  0.30509000  0.44336000  1
  H  H113  1  0.28690000  0.32161000  0.54139000  1
  H  H114  1  0.36768000  0.36996000  0.53996000  1
  H  H115  1  0.06901000  0.33096000  0.49575000  1
  H  H116  1  0.78066000  0.63248000  0.60948000  1
  H  H117  1  0.91609000  0.56930000  0.59266000  1
  H  H118  1  0.67569000  0.67977000  0.65641000  1
  H  H119  1  0.25104000  0.08877000  0.64638000  1
  H  H120  1  0.17151000  0.13827000  0.69491000  1
  H  H121  1  0.28690000  0.21978000  0.67839000  1
  H  H122  1  0.36768000  0.17000000  0.63004000  1
  H  H123  1  0.06901000  0.16479000  0.66904000  1
  H  H124  1  0.78066000  0.97700000  0.36752000  1
  H  H125  1  0.91609000  0.02336000  0.43070000  1
  H  H126  1  0.67569000  0.97664000  0.32023000  1
  H  H127  1  0.25104000  0.55761000  0.91123000  1
  H  H128  1  0.17151000  0.55664000  0.86173000  1
  H  H129  1  0.28690000  0.45861000  0.78022000  1
  H  H130  1  0.36768000  0.46004000  0.83000000  1
  H  H131  1  0.06901000  0.50425000  0.83521000  1
  H  H132  1  0.25104000  0.64638000  0.55761000  1
  H  H133  1  0.17151000  0.69491000  0.55664000  1
  H  H134  1  0.28690000  0.67839000  0.45861000  1
  H  H135  1  0.36768000  0.63004000  0.46004000  1
  H  H136  1  0.06901000  0.66904000  0.50425000  1
  H  H137  1  0.78066000  0.36752000  0.39052000  1
  H  H138  1  0.91609000  0.43070000  0.40734000  1
  H  H139  1  0.67569000  0.32023000  0.34359000  1
  H  H140  1  0.25104000  0.91123000  0.35362000  1
  H  H141  1  0.17151000  0.86173000  0.30509000  1
  H  H142  1  0.28690000  0.78022000  0.32161000  1
  H  H143  1  0.36768000  0.83000000  0.36996000  1
  H  H144  1  0.06901000  0.83521000  0.33096000  1
  H  H145  1  0.78066000  0.02300000  0.63248000  1
  H  H146  1  0.91609000  0.97664000  0.56930000  1
  H  H147  1  0.67569000  0.02336000  0.67977000  1
  H  H148  1  0.25104000  0.44239000  0.08877000  1
  H  H149  1  0.17151000  0.44336000  0.13827000  1
  H  H150  1  0.28690000  0.54139000  0.21978000  1
  H  H151  1  0.36768000  0.53996000  0.17000000  1
  H  H152  1  0.06901000  0.49575000  0.16479000  1
  H  H153  1  0.78066000  0.60948000  0.97700000  1
  H  H154  1  0.91609000  0.59266000  0.02336000  1
  H  H155  1  0.67569000  0.65641000  0.97664000  1
  H  H156  1  0.74896000  0.91123000  0.55761000  1
  H  H157  1  0.82849000  0.86173000  0.55664000  1
  H  H158  1  0.71310000  0.78022000  0.45861000  1
  H  H159  1  0.63232000  0.83000000  0.46004000  1
  H  H160  1  0.93099000  0.83521000  0.50425000  1
  H  H161  1  0.74896000  0.44239000  0.35362000  1
  H  H162  1  0.82849000  0.44336000  0.30509000  1
  H  H163  1  0.71310000  0.54139000  0.32161000  1
  H  H164  1  0.63232000  0.53996000  0.36996000  1
  H  H165  1  0.93099000  0.49575000  0.33096000  1
  H  H166  1  0.21934000  0.60948000  0.63248000  1
  H  H167  1  0.08391000  0.59266000  0.56930000  1
  H  H168  1  0.32431000  0.65641000  0.67977000  1
  H  H169  1  0.74896000  0.64638000  0.08877000  1
  H  H170  1  0.82849000  0.69491000  0.13827000  1
  H  H171  1  0.71310000  0.67839000  0.21978000  1
  H  H172  1  0.63232000  0.63004000  0.17000000  1
  H  H173  1  0.93099000  0.66904000  0.16479000  1
  H  H174  1  0.21934000  0.36752000  0.97700000  1
  H  H175  1  0.08391000  0.43070000  0.02336000  1
  H  H176  1  0.32431000  0.32023000  0.97664000  1
  H  H177  1  0.74896000  0.08877000  0.44239000  1
  H  H178  1  0.82849000  0.13827000  0.44336000  1
  H  H179  1  0.71310000  0.21978000  0.54139000  1
  H  H180  1  0.63232000  0.17000000  0.53996000  1
  H  H181  1  0.93099000  0.16479000  0.49575000  1
  H  H182  1  0.21934000  0.97700000  0.60948000  1
  H  H183  1  0.08391000  0.02336000  0.59266000  1
  H  H184  1  0.32431000  0.97664000  0.65641000  1
  H  H185  1  0.74896000  0.55761000  0.64638000  1
  H  H186  1  0.82849000  0.55664000  0.69491000  1
  H  H187  1  0.71310000  0.45861000  0.67839000  1
  H  H188  1  0.63232000  0.46004000  0.63004000  1
  H  H189  1  0.93099000  0.50425000  0.66904000  1
  H  H190  1  0.21934000  0.39052000  0.36752000  1
  H  H191  1  0.08391000  0.40734000  0.43070000  1
  H  H192  1  0.32431000  0.34359000  0.32023000  1
  H  H193  1  0.74896000  0.35362000  0.91123000  1
  H  H194  1  0.82849000  0.30509000  0.86173000  1
  H  H195  1  0.71310000  0.32161000  0.78022000  1
  H  H196  1  0.63232000  0.36996000  0.83000000  1
  H  H197  1  0.93099000  0.33096000  0.83521000  1
  H  H198  1  0.21934000  0.63248000  0.02300000  1
  H  H199  1  0.08391000  0.56930000  0.97664000  1
  H  H200  1  0.32431000  0.67977000  0.02336000  1
  H  H201  1  0.72988000  0.75434000  0.50868000  1
  H  H202  1  0.72988000  0.75434000  0.24566000  1
  H  H203  1  0.72988000  0.49132000  0.24566000  1
  H  H204  1  0.72988000  0.24566000  0.49132000  1
  H  H205  1  0.72988000  0.24566000  0.75434000  1
  H  H206  1  0.72988000  0.50868000  0.75434000  1
  H  H207  1  0.27012000  0.24566000  0.49132000  1
  H  H208  1  0.27012000  0.50868000  0.75434000  1
  H  H209  1  0.27012000  0.24566000  0.75434000  1
  H  H210  1  0.27012000  0.75434000  0.50868000  1
  H  H211  1  0.27012000  0.49132000  0.24566000  1
  H  H212  1  0.27012000  0.75434000  0.24566000  1
  H  H213  1  0.09712000  0.45363000  0.45363000  1
  H  H214  1  0.40538000  0.34159000  0.34159000  1
  H  H215  1  0.09712000  0.00000000  0.54637000  1
  H  H216  1  0.40538000  0.00000000  0.65841000  1
  H  H217  1  0.09712000  0.54637000  1.00000000  1
  H  H218  1  0.40538000  0.65841000  1.00000000  1
  H  H219  1  0.09712000  0.54637000  0.54637000  1
  H  H220  1  0.40538000  0.65841000  0.65841000  1
  H  H221  1  0.09712000  0.45363000  0.00000000  1
  H  H222  1  0.40538000  0.34159000  1.00000000  1
  H  H223  1  0.90288000  0.00000000  0.54637000  1
  H  H224  1  0.59462000  0.00000000  0.65841000  1
  H  H225  1  0.90288000  0.45363000  0.45363000  1
  H  H226  1  0.59462000  0.34159000  0.34159000  1
  H  H227  1  0.90288000  0.54637000  1.00000000  1
  H  H228  1  0.59462000  0.65841000  1.00000000  1
  H  H229  1  0.90288000  0.00000000  0.45363000  1
  H  H230  1  0.59462000  0.00000000  0.34159000  1
  H  H231  1  0.90288000  0.54637000  0.54637000  1
  H  H232  1  0.59462000  0.65841000  0.65841000  1
  C  C233  1  0.63360000  0.60113000  0.50729000  1
  C  C234  1  0.68330000  0.63385000  0.50896000  1
  C  C235  1  0.74140000  0.65290000  0.53774000  1
  C  C236  1  0.78850000  0.68180000  0.53700000  1
  C  C237  1  0.77850000  0.69190000  0.50843000  1
  C  C238  1  0.72000000  0.67220000  0.47880000  1
  C  C239  1  0.67240000  0.64330000  0.47955000  1
  C  C240  1  0.82910000  0.72310000  0.50720000  1
  C  C241  1  0.91320000  0.72334000  0.50836000  1
  C  C242  1  0.95930000  0.69070000  0.50584000  1
  C  C243  1  0.63360000  0.90616000  0.39887000  1
  C  C244  1  0.68330000  0.87511000  0.36615000  1
  C  C245  1  0.74140000  0.88484000  0.34710000  1
  C  C246  1  0.78850000  0.85520000  0.31820000  1
  C  C247  1  0.77850000  0.81653000  0.30810000  1
  C  C248  1  0.72000000  0.80660000  0.32780000  1
  C  C249  1  0.67240000  0.83625000  0.35670000  1
  C  C250  1  0.82910000  0.78410000  0.27690000  1
  C  C251  1  0.91320000  0.78502000  0.27666000  1
  C  C252  1  0.95930000  0.81514000  0.30930000  1
  C  C253  1  0.63360000  0.49271000  0.09384000  1
  C  C254  1  0.68330000  0.49104000  0.12489000  1
  C  C255  1  0.74140000  0.46226000  0.11516000  1
  C  C256  1  0.78850000  0.46300000  0.14480000  1
  C  C257  1  0.77850000  0.49157000  0.18347000  1
  C  C258  1  0.72000000  0.52120000  0.19340000  1
  C  C259  1  0.67240000  0.52045000  0.16375000  1
  C  C260  1  0.82910000  0.49280000  0.21590000  1
  C  C261  1  0.91320000  0.49164000  0.21498000  1
  C  C262  1  0.95930000  0.49416000  0.18486000  1
  C  C263  1  0.63360000  0.39887000  0.49271000  1
  C  C264  1  0.68330000  0.36615000  0.49104000  1
  C  C265  1  0.74140000  0.34710000  0.46226000  1
  C  C266  1  0.78850000  0.31820000  0.46300000  1
  C  C267  1  0.77850000  0.30810000  0.49157000  1
  C  C268  1  0.72000000  0.32780000  0.52120000  1
  C  C269  1  0.67240000  0.35670000  0.52045000  1
  C  C270  1  0.82910000  0.27690000  0.49280000  1
  C  C271  1  0.91320000  0.27666000  0.49164000  1
  C  C272  1  0.95930000  0.30930000  0.49416000  1
  C  C273  1  0.63360000  0.09384000  0.60113000  1
  C  C274  1  0.68330000  0.12489000  0.63385000  1
  C  C275  1  0.74140000  0.11516000  0.65290000  1
  C  C276  1  0.78850000  0.14480000  0.68180000  1
  C  C277  1  0.77850000  0.18347000  0.69190000  1
  C  C278  1  0.72000000  0.19340000  0.67220000  1
  C  C279  1  0.67240000  0.16375000  0.64330000  1
  C  C280  1  0.82910000  0.21590000  0.72310000  1
  C  C281  1  0.91320000  0.21498000  0.72334000  1
  C  C282  1  0.95930000  0.18486000  0.69070000  1
  C  C283  1  0.63360000  0.50729000  0.90616000  1
  C  C284  1  0.68330000  0.50896000  0.87511000  1
  C  C285  1  0.74140000  0.53774000  0.88484000  1
  C  C286  1  0.78850000  0.53700000  0.85520000  1
  C  C287  1  0.77850000  0.50843000  0.81653000  1
  C  C288  1  0.72000000  0.47880000  0.80660000  1
  C  C289  1  0.67240000  0.47955000  0.83625000  1
  C  C290  1  0.82910000  0.50720000  0.78410000  1
  C  C291  1  0.91320000  0.50836000  0.78502000  1
  C  C292  1  0.95930000  0.50584000  0.81514000  1
  C  C293  1  0.36640000  0.09384000  0.49271000  1
  C  C294  1  0.31670000  0.12489000  0.49104000  1
  C  C295  1  0.25860000  0.11516000  0.46226000  1
  C  C296  1  0.21150000  0.14480000  0.46300000  1
  C  C297  1  0.22150000  0.18347000  0.49157000  1
  C  C298  1  0.28000000  0.19340000  0.52120000  1
  C  C299  1  0.32760000  0.16375000  0.52045000  1
  C  C300  1  0.17090000  0.21590000  0.49280000  1
  C  C301  1  0.08680000  0.21498000  0.49164000  1
  C  C302  1  0.04070000  0.18486000  0.49416000  1
  C  C303  1  0.36640000  0.50729000  0.60113000  1
  C  C304  1  0.31670000  0.50896000  0.63385000  1
  C  C305  1  0.25860000  0.53774000  0.65290000  1
  C  C306  1  0.21150000  0.53700000  0.68180000  1
  C  C307  1  0.22150000  0.50843000  0.69190000  1
  C  C308  1  0.28000000  0.47880000  0.67220000  1
  C  C309  1  0.32760000  0.47955000  0.64330000  1
  C  C310  1  0.17090000  0.50720000  0.72310000  1
  C  C311  1  0.08680000  0.50836000  0.72334000  1
  C  C312  1  0.04070000  0.50584000  0.69070000  1
  C  C313  1  0.36640000  0.39887000  0.90616000  1
  C  C314  1  0.31670000  0.36615000  0.87511000  1
  C  C315  1  0.25860000  0.34710000  0.88484000  1
  C  C316  1  0.21150000  0.31820000  0.85520000  1
  C  C317  1  0.22150000  0.30810000  0.81653000  1
  C  C318  1  0.28000000  0.32780000  0.80660000  1
  C  C319  1  0.32760000  0.35670000  0.83625000  1
  C  C320  1  0.17090000  0.27690000  0.78410000  1
  C  C321  1  0.08680000  0.27666000  0.78502000  1
  C  C322  1  0.04070000  0.30930000  0.81514000  1
  C  C323  1  0.36640000  0.90616000  0.50729000  1
  C  C324  1  0.31670000  0.87511000  0.50896000  1
  C  C325  1  0.25860000  0.88484000  0.53774000  1
  C  C326  1  0.21150000  0.85520000  0.53700000  1
  C  C327  1  0.22150000  0.81653000  0.50843000  1
  C  C328  1  0.28000000  0.80660000  0.47880000  1
  C  C329  1  0.32760000  0.83625000  0.47955000  1
  C  C330  1  0.17090000  0.78410000  0.50720000  1
  C  C331  1  0.08680000  0.78502000  0.50836000  1
  C  C332  1  0.04070000  0.81514000  0.50584000  1
  C  C333  1  0.36640000  0.49271000  0.39887000  1
  C  C334  1  0.31670000  0.49104000  0.36615000  1
  C  C335  1  0.25860000  0.46226000  0.34710000  1
  C  C336  1  0.21150000  0.46300000  0.31820000  1
  C  C337  1  0.22150000  0.49157000  0.30810000  1
  C  C338  1  0.28000000  0.52120000  0.32780000  1
  C  C339  1  0.32760000  0.52045000  0.35670000  1
  C  C340  1  0.17090000  0.49280000  0.27690000  1
  C  C341  1  0.08680000  0.49164000  0.27666000  1
  C  C342  1  0.04070000  0.49416000  0.30930000  1
  C  C343  1  0.36640000  0.60113000  0.09384000  1
  C  C344  1  0.31670000  0.63385000  0.12489000  1
  C  C345  1  0.25860000  0.65290000  0.11516000  1
  C  C346  1  0.21150000  0.68180000  0.14480000  1
  C  C347  1  0.22150000  0.69190000  0.18347000  1
  C  C348  1  0.28000000  0.67220000  0.19340000  1
  C  C349  1  0.32760000  0.64330000  0.16375000  1
  C  C350  1  0.17090000  0.72310000  0.21590000  1
  C  C351  1  0.08680000  0.72334000  0.21498000  1
  C  C352  1  0.04070000  0.69070000  0.18486000  1
  C  C353  1  0.36640000  0.39887000  0.49271000  1
  C  C354  1  0.31670000  0.36615000  0.49104000  1
  C  C355  1  0.25860000  0.34710000  0.46226000  1
  C  C356  1  0.21150000  0.31820000  0.46300000  1
  C  C357  1  0.22150000  0.30810000  0.49157000  1
  C  C358  1  0.28000000  0.32780000  0.52120000  1
  C  C359  1  0.32760000  0.35670000  0.52045000  1
  C  C360  1  0.17090000  0.27690000  0.49280000  1
  C  C361  1  0.08680000  0.27666000  0.49164000  1
  C  C362  1  0.04070000  0.30930000  0.49416000  1
  C  C363  1  0.36640000  0.09384000  0.60113000  1
  C  C364  1  0.31670000  0.12489000  0.63385000  1
  C  C365  1  0.25860000  0.11516000  0.65290000  1
  C  C366  1  0.21150000  0.14480000  0.68180000  1
  C  C367  1  0.22150000  0.18347000  0.69190000  1
  C  C368  1  0.28000000  0.19340000  0.67220000  1
  C  C369  1  0.32760000  0.16375000  0.64330000  1
  C  C370  1  0.17090000  0.21590000  0.72310000  1
  C  C371  1  0.08680000  0.21498000  0.72334000  1
  C  C372  1  0.04070000  0.18486000  0.69070000  1
  C  C373  1  0.36640000  0.50729000  0.90616000  1
  C  C374  1  0.31670000  0.50896000  0.87511000  1
  C  C375  1  0.25860000  0.53774000  0.88484000  1
  C  C376  1  0.21150000  0.53700000  0.85520000  1
  C  C377  1  0.22150000  0.50843000  0.81653000  1
  C  C378  1  0.28000000  0.47880000  0.80660000  1
  C  C379  1  0.32760000  0.47955000  0.83625000  1
  C  C380  1  0.17090000  0.50720000  0.78410000  1
  C  C381  1  0.08680000  0.50836000  0.78502000  1
  C  C382  1  0.04070000  0.50584000  0.81514000  1
  C  C383  1  0.36640000  0.60113000  0.50729000  1
  C  C384  1  0.31670000  0.63385000  0.50896000  1
  C  C385  1  0.25860000  0.65290000  0.53774000  1
  C  C386  1  0.21150000  0.68180000  0.53700000  1
  C  C387  1  0.22150000  0.69190000  0.50843000  1
  C  C388  1  0.28000000  0.67220000  0.47880000  1
  C  C389  1  0.32760000  0.64330000  0.47955000  1
  C  C390  1  0.17090000  0.72310000  0.50720000  1
  C  C391  1  0.08680000  0.72334000  0.50836000  1
  C  C392  1  0.04070000  0.69070000  0.50584000  1
  C  C393  1  0.36640000  0.90616000  0.39887000  1
  C  C394  1  0.31670000  0.87511000  0.36615000  1
  C  C395  1  0.25860000  0.88484000  0.34710000  1
  C  C396  1  0.21150000  0.85520000  0.31820000  1
  C  C397  1  0.22150000  0.81653000  0.30810000  1
  C  C398  1  0.28000000  0.80660000  0.32780000  1
  C  C399  1  0.32760000  0.83625000  0.35670000  1
  C  C400  1  0.17090000  0.78410000  0.27690000  1
  C  C401  1  0.08680000  0.78502000  0.27666000  1
  C  C402  1  0.04070000  0.81514000  0.30930000  1
  C  C403  1  0.36640000  0.49271000  0.09384000  1
  C  C404  1  0.31670000  0.49104000  0.12489000  1
  C  C405  1  0.25860000  0.46226000  0.11516000  1
  C  C406  1  0.21150000  0.46300000  0.14480000  1
  C  C407  1  0.22150000  0.49157000  0.18347000  1
  C  C408  1  0.28000000  0.52120000  0.19340000  1
  C  C409  1  0.32760000  0.52045000  0.16375000  1
  C  C410  1  0.17090000  0.49280000  0.21590000  1
  C  C411  1  0.08680000  0.49164000  0.21498000  1
  C  C412  1  0.04070000  0.49416000  0.18486000  1
  C  C413  1  0.63360000  0.90616000  0.50729000  1
  C  C414  1  0.68330000  0.87511000  0.50896000  1
  C  C415  1  0.74140000  0.88484000  0.53774000  1
  C  C416  1  0.78850000  0.85520000  0.53700000  1
  C  C417  1  0.77850000  0.81653000  0.50843000  1
  C  C418  1  0.72000000  0.80660000  0.47880000  1
  C  C419  1  0.67240000  0.83625000  0.47955000  1
  C  C420  1  0.82910000  0.78410000  0.50720000  1
  C  C421  1  0.91320000  0.78502000  0.50836000  1
  C  C422  1  0.95930000  0.81514000  0.50584000  1
  C  C423  1  0.63360000  0.49271000  0.39887000  1
  C  C424  1  0.68330000  0.49104000  0.36615000  1
  C  C425  1  0.74140000  0.46226000  0.34710000  1
  C  C426  1  0.78850000  0.46300000  0.31820000  1
  C  C427  1  0.77850000  0.49157000  0.30810000  1
  C  C428  1  0.72000000  0.52120000  0.32780000  1
  C  C429  1  0.67240000  0.52045000  0.35670000  1
  C  C430  1  0.82910000  0.49280000  0.27690000  1
  C  C431  1  0.91320000  0.49164000  0.27666000  1
  C  C432  1  0.95930000  0.49416000  0.30930000  1
  C  C433  1  0.63360000  0.60113000  0.09384000  1
  C  C434  1  0.68330000  0.63385000  0.12489000  1
  C  C435  1  0.74140000  0.65290000  0.11516000  1
  C  C436  1  0.78850000  0.68180000  0.14480000  1
  C  C437  1  0.77850000  0.69190000  0.18347000  1
  C  C438  1  0.72000000  0.67220000  0.19340000  1
  C  C439  1  0.67240000  0.64330000  0.16375000  1
  C  C440  1  0.82910000  0.72310000  0.21590000  1
  C  C441  1  0.91320000  0.72334000  0.21498000  1
  C  C442  1  0.95930000  0.69070000  0.18486000  1
  C  C443  1  0.63360000  0.09384000  0.49271000  1
  C  C444  1  0.68330000  0.12489000  0.49104000  1
  C  C445  1  0.74140000  0.11516000  0.46226000  1
  C  C446  1  0.78850000  0.14480000  0.46300000  1
  C  C447  1  0.77850000  0.18347000  0.49157000  1
  C  C448  1  0.72000000  0.19340000  0.52120000  1
  C  C449  1  0.67240000  0.16375000  0.52045000  1
  C  C450  1  0.82910000  0.21590000  0.49280000  1
  C  C451  1  0.91320000  0.21498000  0.49164000  1
  C  C452  1  0.95930000  0.18486000  0.49416000  1
  C  C453  1  0.63360000  0.50729000  0.60113000  1
  C  C454  1  0.68330000  0.50896000  0.63385000  1
  C  C455  1  0.74140000  0.53774000  0.65290000  1
  C  C456  1  0.78850000  0.53700000  0.68180000  1
  C  C457  1  0.77850000  0.50843000  0.69190000  1
  C  C458  1  0.72000000  0.47880000  0.67220000  1
  C  C459  1  0.67240000  0.47955000  0.64330000  1
  C  C460  1  0.82910000  0.50720000  0.72310000  1
  C  C461  1  0.91320000  0.50836000  0.72334000  1
  C  C462  1  0.95930000  0.50584000  0.69070000  1
  C  C463  1  0.63360000  0.39887000  0.90616000  1
  C  C464  1  0.68330000  0.36615000  0.87511000  1
  C  C465  1  0.74140000  0.34710000  0.88484000  1
  C  C466  1  0.78850000  0.31820000  0.85520000  1
  C  C467  1  0.77850000  0.30810000  0.81653000  1
  C  C468  1  0.72000000  0.32780000  0.80660000  1
  C  C469  1  0.67240000  0.35670000  0.83625000  1
  C  C470  1  0.82910000  0.27690000  0.78410000  1
  C  C471  1  0.91320000  0.27666000  0.78502000  1
  C  C472  1  0.95930000  0.30930000  0.81514000  1
  C  C473  1  0.78770000  0.75390000  0.50780000  1
  C  C474  1  0.95710000  0.75455000  0.50910000  1
  C  C475  1  0.78770000  0.75390000  0.24610000  1
  C  C476  1  0.95710000  0.75455000  0.24545000  1
  C  C477  1  0.78770000  0.49220000  0.24610000  1
  C  C478  1  0.95710000  0.49090000  0.24545000  1
  C  C479  1  0.78770000  0.24610000  0.49220000  1
  C  C480  1  0.95710000  0.24545000  0.49090000  1
  C  C481  1  0.78770000  0.24610000  0.75390000  1
  C  C482  1  0.95710000  0.24545000  0.75455000  1
  C  C483  1  0.78770000  0.50780000  0.75390000  1
  C  C484  1  0.95710000  0.50910000  0.75455000  1
  C  C485  1  0.21230000  0.24610000  0.49220000  1
  C  C486  1  0.04290000  0.24545000  0.49090000  1
  C  C487  1  0.21230000  0.50780000  0.75390000  1
  C  C488  1  0.04290000  0.50910000  0.75455000  1
  C  C489  1  0.21230000  0.24610000  0.75390000  1
  C  C490  1  0.04290000  0.24545000  0.75455000  1
  C  C491  1  0.21230000  0.75390000  0.50780000  1
  C  C492  1  0.04290000  0.75455000  0.50910000  1
  C  C493  1  0.21230000  0.49220000  0.24610000  1
  C  C494  1  0.04290000  0.49090000  0.24545000  1
  C  C495  1  0.21230000  0.75390000  0.24610000  1
  C  C496  1  0.04290000  0.75455000  0.24545000  1
  C  C497  1  0.32200000  0.37820000  0.37820000  1
  C  C498  1  0.24460000  0.38990000  0.38990000  1
  C  C499  1  0.21240000  0.42240000  0.42240000  1
  C  C500  1  0.10800000  0.42930000  0.42930000  1
  C  C501  1  0.34600000  0.34310000  0.34310000  1
  C  C502  1  0.32200000  0.00000000  0.62180000  1
  C  C503  1  0.24460000  0.00000000  0.61010000  1
  C  C504  1  0.21240000  0.00000000  0.57760000  1
  C  C505  1  0.10800000  0.00000000  0.57070000  1
  C  C506  1  0.34600000  0.00000000  0.65690000  1
  C  C507  1  0.32200000  0.62180000  1.00000000  1
  C  C508  1  0.24460000  0.61010000  1.00000000  1
  C  C509  1  0.21240000  0.57760000  1.00000000  1
  C  C510  1  0.10800000  0.57070000  1.00000000  1
  C  C511  1  0.34600000  0.65690000  1.00000000  1
  C  C512  1  0.32200000  0.62180000  0.62180000  1
  C  C513  1  0.24460000  0.61010000  0.61010000  1
  C  C514  1  0.21240000  0.57760000  0.57760000  1
  C  C515  1  0.10800000  0.57070000  0.57070000  1
  C  C516  1  0.34600000  0.65690000  0.65690000  1
  C  C517  1  0.32200000  0.37820000  1.00000000  1
  C  C518  1  0.24460000  0.38990000  1.00000000  1
  C  C519  1  0.21240000  0.42240000  1.00000000  1
  C  C520  1  0.10800000  0.42930000  1.00000000  1
  C  C521  1  0.34600000  0.34310000  1.00000000  1
  C  C522  1  0.67800000  0.00000000  0.62180000  1
  C  C523  1  0.75540000  0.00000000  0.61010000  1
  C  C524  1  0.78760000  0.00000000  0.57760000  1
  C  C525  1  0.89200000  0.00000000  0.57070000  1
  C  C526  1  0.65400000  0.00000000  0.65690000  1
  C  C527  1  0.67800000  0.37820000  0.37820000  1
  C  C528  1  0.75540000  0.38990000  0.38990000  1
  C  C529  1  0.78760000  0.42240000  0.42240000  1
  C  C530  1  0.89200000  0.42930000  0.42930000  1
  C  C531  1  0.65400000  0.34310000  0.34310000  1
  C  C532  1  0.67800000  0.62180000  1.00000000  1
  C  C533  1  0.75540000  0.61010000  1.00000000  1
  C  C534  1  0.78760000  0.57760000  1.00000000  1
  C  C535  1  0.89200000  0.57070000  1.00000000  1
  C  C536  1  0.65400000  0.65690000  1.00000000  1
  C  C537  1  0.67800000  0.00000000  0.37820000  1
  C  C538  1  0.75540000  0.00000000  0.38990000  1
  C  C539  1  0.78760000  0.00000000  0.42240000  1
  C  C540  1  0.89200000  0.00000000  0.42930000  1
  C  C541  1  0.65400000  0.00000000  0.34310000  1
  C  C542  1  0.67800000  0.62180000  0.62180000  1
  C  C543  1  0.75540000  0.61010000  0.61010000  1
  C  C544  1  0.78760000  0.57760000  0.57760000  1
  C  C545  1  0.89200000  0.57070000  0.57070000  1
  C  C546  1  0.65400000  0.65690000  0.65690000  1
  O  O547  1  0.65060000  0.59172000  0.53313000  1
  O  O548  1  0.58090000  0.58578000  0.48115000  1
  O  O549  1  0.65060000  0.94141000  0.40828000  1
  O  O550  1  0.58090000  0.89537000  0.41422000  1
  O  O551  1  0.65060000  0.46687000  0.05859000  1
  O  O552  1  0.58090000  0.51885000  0.10463000  1
  O  O553  1  0.65060000  0.40828000  0.46687000  1
  O  O554  1  0.58090000  0.41422000  0.51885000  1
  O  O555  1  0.65060000  0.05859000  0.59172000  1
  O  O556  1  0.58090000  0.10463000  0.58578000  1
  O  O557  1  0.65060000  0.53313000  0.94141000  1
  O  O558  1  0.58090000  0.48115000  0.89537000  1
  O  O559  1  0.34940000  0.05859000  0.46687000  1
  O  O560  1  0.41910000  0.10463000  0.51885000  1
  O  O561  1  0.34940000  0.53313000  0.59172000  1
  O  O562  1  0.41910000  0.48115000  0.58578000  1
  O  O563  1  0.34940000  0.40828000  0.94141000  1
  O  O564  1  0.41910000  0.41422000  0.89537000  1
  O  O565  1  0.34940000  0.94141000  0.53313000  1
  O  O566  1  0.41910000  0.89537000  0.48115000  1
  O  O567  1  0.34940000  0.46687000  0.40828000  1
  O  O568  1  0.41910000  0.51885000  0.41422000  1
  O  O569  1  0.34940000  0.59172000  0.05859000  1
  O  O570  1  0.41910000  0.58578000  0.10463000  1
  O  O571  1  0.34940000  0.40828000  0.46687000  1
  O  O572  1  0.41910000  0.41422000  0.51885000  1
  O  O573  1  0.34940000  0.05859000  0.59172000  1
  O  O574  1  0.41910000  0.10463000  0.58578000  1
  O  O575  1  0.34940000  0.53313000  0.94141000  1
  O  O576  1  0.41910000  0.48115000  0.89537000  1
  O  O577  1  0.34940000  0.59172000  0.53313000  1
  O  O578  1  0.41910000  0.58578000  0.48115000  1
  O  O579  1  0.34940000  0.94141000  0.40828000  1
  O  O580  1  0.41910000  0.89537000  0.41422000  1
  O  O581  1  0.34940000  0.46687000  0.05859000  1
  O  O582  1  0.41910000  0.51885000  0.10463000  1
  O  O583  1  0.65060000  0.94141000  0.53313000  1
  O  O584  1  0.58090000  0.89537000  0.48115000  1
  O  O585  1  0.65060000  0.46687000  0.40828000  1
  O  O586  1  0.58090000  0.51885000  0.41422000  1
  O  O587  1  0.65060000  0.59172000  0.05859000  1
  O  O588  1  0.58090000  0.58578000  0.10463000  1
  O  O589  1  0.65060000  0.05859000  0.46687000  1
  O  O590  1  0.58090000  0.10463000  0.51885000  1
  O  O591  1  0.65060000  0.53313000  0.59172000  1
  O  O592  1  0.58090000  0.48115000  0.58578000  1
  O  O593  1  0.65060000  0.40828000  0.94141000  1
  O  O594  1  0.58090000  0.41422000  0.89537000  1
  O  O595  1  0.40120000  0.39995000  0.39995000  1
  O  O596  1  0.26180000  0.45620000  0.45620000  1
  O  O597  1  0.40120000  0.00000000  0.60005000  1
  O  O598  1  0.26180000  0.00000000  0.54380000  1
  O  O599  1  0.40120000  0.60005000  1.00000000  1
  O  O600  1  0.26180000  0.54380000  1.00000000  1
  O  O601  1  0.40120000  0.60005000  0.60005000  1
  O  O602  1  0.26180000  0.54380000  0.54380000  1
  O  O603  1  0.40120000  0.00000000  0.39995000  1
  O  O604  1  0.26180000  0.00000000  0.45620000  1
  O  O605  1  0.40120000  0.39995000  0.00000000  1
  O  O606  1  0.26180000  0.45620000  0.00000000  1
  O  O607  1  0.59880000  0.00000000  0.60005000  1
  O  O608  1  0.73820000  0.00000000  0.54380000  1
  O  O609  1  0.59880000  0.39995000  0.39995000  1
  O  O610  1  0.73820000  0.45620000  0.45620000  1
  O  O611  1  0.59880000  0.60005000  1.00000000  1
  O  O612  1  0.73820000  0.54380000  1.00000000  1
  O  O613  1  0.59880000  0.00000000  0.39995000  1
  O  O614  1  0.73820000  0.00000000  0.45620000  1
  O  O615  1  0.59880000  0.60005000  0.60005000  1
  O  O616  1  0.73820000  0.54380000  0.54380000  1
  O  O617  1  0.59880000  0.39995000  0.00000000  1
  O  O618  1  0.73820000  0.45620000  0.00000000  1
  O  O619  1  0.50000000  0.47122000  0.43621000  1
  O  O620  1  0.50000000  0.96499000  0.52878000  1
  O  O621  1  0.50000000  0.56379000  0.03501000  1
  O  O622  1  0.50000000  0.52878000  0.56379000  1
  O  O623  1  0.50000000  0.03501000  0.47122000  1
  O  O624  1  0.50000000  0.43621000  0.96499000  1
  O  O625  1  0.50000000  0.03501000  0.56379000  1
  O  O626  1  0.50000000  0.43621000  0.47122000  1
  O  O627  1  0.50000000  0.52878000  0.96499000  1
  O  O628  1  0.50000000  0.96499000  0.43621000  1
  O  O629  1  0.50000000  0.56379000  0.52878000  1
  O  O630  1  0.50000000  0.47122000  0.03501000  1
  O  O631  1  0.39280000  0.51746000  0.48253000  1
  O  O632  1  0.39280000  0.96507000  0.48253000  1
  O  O633  1  0.39280000  0.51746000  0.03492000  1
  O  O634  1  0.39280000  0.48254000  0.51747000  1
  O  O635  1  0.19000000  0.54665000  0.45335000  1
  O  O636  1  0.39280000  0.03493000  0.51747000  1
  O  O637  1  0.39280000  0.48254000  0.96508000  1
  O  O638  1  0.60720000  0.03493000  0.51747000  1
  O  O639  1  0.60720000  0.48254000  0.51747000  1
  O  O640  1  0.60720000  0.48254000  0.96508000  1
  O  O641  1  0.60720000  0.96507000  0.48253000  1
  O  O642  1  0.60720000  0.51746000  0.48253000  1
  O  O643  1  0.60720000  0.51746000  0.03492000  1
  O  O644  1  0.12760000  0.50000000  0.50000000  1
  O  O645  1  0.12760000  0.00000000  0.50000000  1
  O  O646  1  0.87240000  0.50000000  0.00000000  1
