# generated using pymatgen
data_Zr3H16C29(SO10)2
_symmetry_space_group_name_H-M   'P 1'
_cell_length_a   21.24958135
_cell_length_b   21.24958135
_cell_length_c   21.24958135
_cell_angle_alpha   102.00933163
_cell_angle_beta   113.32614115
_cell_angle_gamma   113.32614115
_symmetry_Int_Tables_number   1
_chemical_formula_structural   Zr3H16C29(SO10)2
_chemical_formula_sum   'Zr12 H64 C116 S8 O80'
_cell_volume   7294.10009870
_cell_formula_units_Z   4
loop_
 _symmetry_equiv_pos_site_id
 _symmetry_equiv_pos_as_xyz
  1  'x, y, z'
loop_
 _atom_site_type_symbol
 _atom_site_label
 _atom_site_symmetry_multiplicity
 _atom_site_fract_x
 _atom_site_fract_y
 _atom_site_fract_z
 _atom_site_occupancy
  C  C0  1  0.54870000  0.55309000  0.82619000  1
  C  C1  1  0.57420000  0.56625000  0.77125000  1
  C  C2  1  0.65380000  0.62120000  0.79940000  1
  C  C3  1  0.67840000  0.63327000  0.74927000  1
  C  C4  1  0.62140000  0.58878000  0.67158000  1
  C  C5  1  0.54490000  0.53565000  0.64395000  1
  C  C6  1  0.51830000  0.52280000  0.69330000  1
  C  C7  1  0.50000000  0.66810000  0.16810000  1
  C  C8  1  0.72690000  0.00439000  0.55309000  1
  C  C9  1  0.79500000  0.99205000  0.56625000  1
  C  C10  1  0.82180000  0.96740000  0.62120000  1
  C  C11  1  0.88400000  0.95487000  0.63327000  1
  C  C12  1  0.91720000  0.96738000  0.58878000  1
  C  C13  1  0.89170000  0.99075000  0.53565000  1
  C  C14  1  0.82950000  0.00450000  0.52280000  1
  C  C15  1  0.50000000  0.16810000  0.66810000  1
  C  C16  1  0.45130000  0.27749000  0.00439000  1
  C  C17  1  0.42580000  0.19705000  0.99205000  1
  C  C18  1  0.34620000  0.14560000  0.96740000  1
  C  C19  1  0.32160000  0.07087000  0.95487000  1
  C  C20  1  0.37860000  0.05018000  0.96738000  1
  C  C21  1  0.45510000  0.09905000  0.99075000  1
  C  C22  1  0.48170000  0.17500000  0.00450000  1
  C  C23  1  0.27310000  0.82619000  0.27749000  1
  C  C24  1  0.20500000  0.77125000  0.19705000  1
  C  C25  1  0.17820000  0.79940000  0.14560000  1
  C  C26  1  0.11600000  0.74927000  0.07087000  1
  C  C27  1  0.08280000  0.67158000  0.05018000  1
  C  C28  1  0.10830000  0.64395000  0.09905000  1
  C  C29  1  0.17050000  0.69330000  0.17500000  1
  C  C30  1  0.72690000  0.72251000  0.17381000  1
  C  C31  1  0.79500000  0.80295000  0.22875000  1
  C  C32  1  0.82180000  0.85440000  0.20060000  1
  C  C33  1  0.88400000  0.92913000  0.25073000  1
  C  C34  1  0.91720000  0.94982000  0.32842000  1
  C  C35  1  0.89170000  0.90095000  0.35605000  1
  C  C36  1  0.82950000  0.82500000  0.30670000  1
  C  C37  1  0.50000000  0.33190000  0.83190000  1
  C  C38  1  0.54870000  0.99561000  0.72251000  1
  C  C39  1  0.57420000  0.00795000  0.80295000  1
  C  C40  1  0.65380000  0.03260000  0.85440000  1
  C  C41  1  0.67840000  0.04513000  0.92913000  1
  C  C42  1  0.62140000  0.03262000  0.94982000  1
  C  C43  1  0.54490000  0.00925000  0.90095000  1
  C  C44  1  0.51830000  0.99550000  0.82500000  1
  C  C45  1  0.50000000  0.83190000  0.33190000  1
  C  C46  1  0.27310000  0.44691000  0.99561000  1
  C  C47  1  0.20500000  0.43375000  0.00795000  1
  C  C48  1  0.17820000  0.37880000  0.03260000  1
  C  C49  1  0.11600000  0.36673000  0.04513000  1
  C  C50  1  0.08280000  0.41122000  0.03262000  1
  C  C51  1  0.10830000  0.46435000  0.00925000  1
  C  C52  1  0.17050000  0.47720000  0.99550000  1
  C  C53  1  0.45130000  0.17381000  0.44691000  1
  C  C54  1  0.42580000  0.22875000  0.43375000  1
  C  C55  1  0.34620000  0.20060000  0.37880000  1
  C  C56  1  0.32160000  0.25073000  0.36673000  1
  C  C57  1  0.37860000  0.32842000  0.41122000  1
  C  C58  1  0.45510000  0.35605000  0.46435000  1
  C  C59  1  0.48170000  0.30670000  0.47720000  1
  C  C60  1  0.45130000  0.44691000  0.17381000  1
  C  C61  1  0.42580000  0.43375000  0.22875000  1
  C  C62  1  0.34620000  0.37880000  0.20060000  1
  C  C63  1  0.32160000  0.36673000  0.25073000  1
  C  C64  1  0.37860000  0.41122000  0.32842000  1
  C  C65  1  0.45510000  0.46435000  0.35605000  1
  C  C66  1  0.48170000  0.47720000  0.30670000  1
  C  C67  1  0.27310000  0.99561000  0.44691000  1
  C  C68  1  0.20500000  0.00795000  0.43375000  1
  C  C69  1  0.17820000  0.03260000  0.37880000  1
  C  C70  1  0.11600000  0.04513000  0.36673000  1
  C  C71  1  0.08280000  0.03262000  0.41122000  1
  C  C72  1  0.10830000  0.00925000  0.46435000  1
  C  C73  1  0.17050000  0.99550000  0.47720000  1
  C  C74  1  0.54870000  0.72251000  0.99561000  1
  C  C75  1  0.57420000  0.80295000  0.00795000  1
  C  C76  1  0.65380000  0.85440000  0.03260000  1
  C  C77  1  0.67840000  0.92913000  0.04513000  1
  C  C78  1  0.62140000  0.94982000  0.03262000  1
  C  C79  1  0.54490000  0.90095000  0.00925000  1
  C  C80  1  0.51830000  0.82500000  0.99550000  1
  C  C81  1  0.72690000  0.17381000  0.72251000  1
  C  C82  1  0.79500000  0.22875000  0.80295000  1
  C  C83  1  0.82180000  0.20060000  0.85440000  1
  C  C84  1  0.88400000  0.25073000  0.92913000  1
  C  C85  1  0.91720000  0.32842000  0.94982000  1
  C  C86  1  0.89170000  0.35605000  0.90095000  1
  C  C87  1  0.82950000  0.30670000  0.82500000  1
  C  C88  1  0.27310000  0.27749000  0.82619000  1
  C  C89  1  0.20500000  0.19705000  0.77125000  1
  C  C90  1  0.17820000  0.14560000  0.79940000  1
  C  C91  1  0.11600000  0.07087000  0.74927000  1
  C  C92  1  0.08280000  0.05018000  0.67158000  1
  C  C93  1  0.10830000  0.09905000  0.64395000  1
  C  C94  1  0.17050000  0.17500000  0.69330000  1
  C  C95  1  0.45130000  0.00439000  0.27749000  1
  C  C96  1  0.42580000  0.99205000  0.19705000  1
  C  C97  1  0.34620000  0.96740000  0.14560000  1
  C  C98  1  0.32160000  0.95487000  0.07087000  1
  C  C99  1  0.37860000  0.96738000  0.05018000  1
  C  C100  1  0.45510000  0.99075000  0.09905000  1
  C  C101  1  0.48170000  0.00450000  0.17500000  1
  C  C102  1  0.72690000  0.55309000  0.00439000  1
  C  C103  1  0.79500000  0.56625000  0.99205000  1
  C  C104  1  0.82180000  0.62120000  0.96740000  1
  C  C105  1  0.88400000  0.63327000  0.95487000  1
  C  C106  1  0.91720000  0.58878000  0.96738000  1
  C  C107  1  0.89170000  0.53565000  0.99075000  1
  C  C108  1  0.82950000  0.52280000  0.00450000  1
  C  C109  1  0.54870000  0.82619000  0.55309000  1
  C  C110  1  0.57420000  0.77125000  0.56625000  1
  C  C111  1  0.65380000  0.79940000  0.62120000  1
  C  C112  1  0.67840000  0.74927000  0.63327000  1
  C  C113  1  0.62140000  0.67158000  0.58878000  1
  C  C114  1  0.54490000  0.64395000  0.53565000  1
  C  C115  1  0.51830000  0.69330000  0.52280000  1
  H  H116  1  0.69120000  0.65050000  0.85270000  1
  H  H117  1  0.73260000  0.67080000  0.76740000  1
  H  H118  1  0.50830000  0.50630000  0.59060000  1
  H  H119  1  0.46370000  0.48550000  0.67420000  1
  H  H120  1  0.79780000  0.95930000  0.65050000  1
  H  H121  1  0.90340000  0.93820000  0.67080000  1
  H  H122  1  0.91570000  0.99800000  0.50630000  1
  H  H123  1  0.81130000  0.02180000  0.48550000  1
  H  H124  1  0.30880000  0.16150000  0.95930000  1
  H  H125  1  0.26740000  0.03480000  0.93820000  1
  H  H126  1  0.49170000  0.08230000  0.99800000  1
  H  H127  1  0.53630000  0.21050000  0.02180000  1
  H  H128  1  0.20220000  0.85270000  0.16150000  1
  H  H129  1  0.09660000  0.76740000  0.03480000  1
  H  H130  1  0.08430000  0.59060000  0.08230000  1
  H  H131  1  0.18870000  0.67420000  0.21050000  1
  H  H132  1  0.79780000  0.83850000  0.14730000  1
  H  H133  1  0.90340000  0.96520000  0.23260000  1
  H  H134  1  0.91570000  0.91770000  0.40940000  1
  H  H135  1  0.81130000  0.78950000  0.32580000  1
  H  H136  1  0.69120000  0.04070000  0.83850000  1
  H  H137  1  0.73260000  0.06180000  0.96520000  1
  H  H138  1  0.50830000  0.00200000  0.91770000  1
  H  H139  1  0.46370000  0.97820000  0.78950000  1
  H  H140  1  0.20220000  0.34950000  0.04070000  1
  H  H141  1  0.09660000  0.32920000  0.06180000  1
  H  H142  1  0.08430000  0.49370000  0.00200000  1
  H  H143  1  0.18870000  0.51450000  0.97820000  1
  H  H144  1  0.30880000  0.14730000  0.34950000  1
  H  H145  1  0.26740000  0.23260000  0.32920000  1
  H  H146  1  0.49170000  0.40940000  0.49370000  1
  H  H147  1  0.53630000  0.32580000  0.51450000  1
  H  H148  1  0.30880000  0.34950000  0.14730000  1
  H  H149  1  0.26740000  0.32920000  0.23260000  1
  H  H150  1  0.49170000  0.49370000  0.40940000  1
  H  H151  1  0.53630000  0.51450000  0.32580000  1
  H  H152  1  0.20220000  0.04070000  0.34950000  1
  H  H153  1  0.09660000  0.06180000  0.32920000  1
  H  H154  1  0.08430000  0.00200000  0.49370000  1
  H  H155  1  0.18870000  0.97820000  0.51450000  1
  H  H156  1  0.69120000  0.83850000  0.04070000  1
  H  H157  1  0.73260000  0.96520000  0.06180000  1
  H  H158  1  0.50830000  0.91770000  0.00200000  1
  H  H159  1  0.46370000  0.78950000  0.97820000  1
  H  H160  1  0.79780000  0.14730000  0.83850000  1
  H  H161  1  0.90340000  0.23260000  0.96520000  1
  H  H162  1  0.91570000  0.40940000  0.91770000  1
  H  H163  1  0.81130000  0.32580000  0.78950000  1
  H  H164  1  0.20220000  0.16150000  0.85270000  1
  H  H165  1  0.09660000  0.03480000  0.76740000  1
  H  H166  1  0.08430000  0.08230000  0.59060000  1
  H  H167  1  0.18870000  0.21050000  0.67420000  1
  H  H168  1  0.30880000  0.95930000  0.16150000  1
  H  H169  1  0.26740000  0.93820000  0.03480000  1
  H  H170  1  0.49170000  0.99800000  0.08230000  1
  H  H171  1  0.53630000  0.02180000  0.21050000  1
  H  H172  1  0.79780000  0.65050000  0.95930000  1
  H  H173  1  0.90340000  0.67080000  0.93820000  1
  H  H174  1  0.91570000  0.50630000  0.99800000  1
  H  H175  1  0.81130000  0.48550000  0.02180000  1
  H  H176  1  0.69120000  0.85270000  0.65050000  1
  H  H177  1  0.73260000  0.76740000  0.67080000  1
  H  H178  1  0.50830000  0.59060000  0.50630000  1
  H  H179  1  0.46370000  0.67420000  0.48550000  1
  O  O180  1  0.59689000  0.60370000  0.89401000  1
  O  O181  1  0.48224000  0.49259000  0.80107000  1
  O  O182  1  0.55150000  0.64750000  0.19900000  1
  O  O183  1  0.60940000  0.54240000  0.06700000  1
  O  O184  1  0.65210000  0.56290000  0.08920000  1
  O  O185  1  0.55160000  0.61690000  0.06530000  1
  O  O186  1  0.60440000  0.53925000  0.53925000  1
  O  O187  1  0.73922000  0.64680000  0.64680000  1
  O  O188  1  0.70969000  0.00681000  0.60370000  1
  O  O189  1  0.69152000  0.01035000  0.49259000  1
  O  O190  1  0.44850000  0.09600000  0.64750000  1
  O  O191  1  0.47540000  0.93300000  0.54240000  1
  O  O192  1  0.47370000  0.91080000  0.56290000  1
  O  O193  1  0.55160000  0.06530000  0.61690000  1
  O  O194  1  0.00000000  0.93485000  0.53925000  1
  O  O195  1  0.00000000  0.90758000  0.64680000  1
  O  O196  1  0.40311000  0.29712000  0.00681000  1
  O  O197  1  0.51776000  0.31883000  0.01035000  1
  O  O198  1  0.44850000  0.64750000  0.09600000  1
  O  O199  1  0.39060000  0.45760000  0.93300000  1
  O  O200  1  0.34790000  0.43710000  0.91080000  1
  O  O201  1  0.44840000  0.51370000  0.06530000  1
  O  O202  1  0.39560000  0.93485000  0.93485000  1
  O  O203  1  0.26078000  0.90758000  0.90758000  1
  O  O204  1  0.29031000  0.89401000  0.29712000  1
  O  O205  1  0.30848000  0.80107000  0.31883000  1
  O  O206  1  0.55150000  0.19900000  0.64750000  1
  O  O207  1  0.52460000  0.06700000  0.45760000  1
  O  O208  1  0.52630000  0.08920000  0.43710000  1
  O  O209  1  0.44840000  0.06530000  0.51370000  1
  O  O210  1  0.00000000  0.53925000  0.93485000  1
  O  O211  1  0.00000000  0.64680000  0.90758000  1
  O  O212  1  0.70969000  0.70288000  0.10599000  1
  O  O213  1  0.69152000  0.68117000  0.19893000  1
  O  O214  1  0.44850000  0.35250000  0.80100000  1
  O  O215  1  0.47540000  0.54240000  0.93300000  1
  O  O216  1  0.47370000  0.56290000  0.91080000  1
  O  O217  1  0.55160000  0.48630000  0.93470000  1
  O  O218  1  0.00000000  0.06515000  0.46075000  1
  O  O219  1  0.00000000  0.09242000  0.35320000  1
  O  O220  1  0.59689000  0.99319000  0.70288000  1
  O  O221  1  0.48224000  0.98965000  0.68117000  1
  O  O222  1  0.55150000  0.90400000  0.35250000  1
  O  O223  1  0.60940000  0.06700000  0.54240000  1
  O  O224  1  0.65210000  0.08920000  0.56290000  1
  O  O225  1  0.55160000  0.93470000  0.48630000  1
  O  O226  1  0.60440000  0.06515000  0.06515000  1
  O  O227  1  0.73922000  0.09242000  0.09242000  1
  O  O228  1  0.29031000  0.39630000  0.99319000  1
  O  O229  1  0.30848000  0.50741000  0.98965000  1
  O  O230  1  0.55150000  0.35250000  0.90400000  1
  O  O231  1  0.52460000  0.45760000  0.06700000  1
  O  O232  1  0.52630000  0.43710000  0.08920000  1
  O  O233  1  0.44840000  0.38310000  0.93470000  1
  O  O234  1  0.00000000  0.46075000  0.06515000  1
  O  O235  1  0.00000000  0.35320000  0.09242000  1
  O  O236  1  0.40311000  0.10599000  0.39630000  1
  O  O237  1  0.51776000  0.19893000  0.50741000  1
  O  O238  1  0.44850000  0.80100000  0.35250000  1
  O  O239  1  0.39060000  0.93300000  0.45760000  1
  O  O240  1  0.34790000  0.91080000  0.43710000  1
  O  O241  1  0.44840000  0.93470000  0.38310000  1
  O  O242  1  0.39560000  0.46075000  0.46075000  1
  O  O243  1  0.26078000  0.35320000  0.35320000  1
  O  O244  1  0.40311000  0.39630000  0.10599000  1
  O  O245  1  0.51776000  0.50741000  0.19893000  1
  O  O246  1  0.29031000  0.99319000  0.39630000  1
  O  O247  1  0.30848000  0.98965000  0.50741000  1
  O  O248  1  0.59689000  0.70288000  0.99319000  1
  O  O249  1  0.48224000  0.68117000  0.98965000  1
  O  O250  1  0.70969000  0.10599000  0.70288000  1
  O  O251  1  0.69152000  0.19893000  0.68117000  1
  O  O252  1  0.29031000  0.29712000  0.89401000  1
  O  O253  1  0.30848000  0.31883000  0.80107000  1
  O  O254  1  0.40311000  0.00681000  0.29712000  1
  O  O255  1  0.51776000  0.01035000  0.31883000  1
  O  O256  1  0.70969000  0.60370000  0.00681000  1
  O  O257  1  0.69152000  0.49259000  0.01035000  1
  O  O258  1  0.59689000  0.89401000  0.60370000  1
  O  O259  1  0.48224000  0.80107000  0.49259000  1
  S  S260  1  0.65252000  0.60793000  0.60793000  1
  S  S261  1  0.00000000  0.95541000  0.60793000  1
  S  S262  1  0.34748000  0.95541000  0.95541000  1
  S  S263  1  0.00000000  0.60793000  0.95541000  1
  S  S264  1  0.00000000  0.04459000  0.39207000  1
  S  S265  1  0.65252000  0.04459000  0.04459000  1
  S  S266  1  0.00000000  0.39207000  0.04459000  1
  S  S267  1  0.34748000  0.39207000  0.39207000  1
  Zr  Zr268  1  0.60455000  0.60455000  1.00000000  1
  Zr  Zr269  1  0.57533000  0.56633000  0.14166000  1
  Zr  Zr270  1  0.60455000  0.00000000  0.60455000  1
  Zr  Zr271  1  0.42467000  0.99100000  0.56633000  1
  Zr  Zr272  1  0.39545000  0.39545000  0.00000000  1
  Zr  Zr273  1  0.42467000  0.56633000  0.99100000  1
  Zr  Zr274  1  0.39545000  0.00000000  0.39545000  1
  Zr  Zr275  1  0.57533000  0.14166000  0.56633000  1
  Zr  Zr276  1  0.42467000  0.43367000  0.85834000  1
  Zr  Zr277  1  0.57533000  0.00900000  0.43367000  1
  Zr  Zr278  1  0.57533000  0.43367000  0.00900000  1
  Zr  Zr279  1  0.42467000  0.85834000  0.43367000  1
