# generated using pymatgen
data_Zr24Co3H72C150(N6O35)2
_symmetry_space_group_name_H-M   'P 1'
_cell_length_a   33.25450948
_cell_length_b   33.25450948
_cell_length_c   33.25450948
_cell_angle_alpha   109.47122063
_cell_angle_beta   109.47122063
_cell_angle_gamma   109.47122063
_symmetry_Int_Tables_number   1
_chemical_formula_structural   Zr24Co3H72C150(N6O35)2
_chemical_formula_sum   'Zr48 Co6 H144 C300 N24 O140'
_cell_volume   28309.34021760
_cell_formula_units_Z   2
loop_
 _symmetry_equiv_pos_site_id
 _symmetry_equiv_pos_as_xyz
  1  'x, y, z'
loop_
 _atom_site_type_symbol
 _atom_site_label
 _atom_site_symmetry_multiplicity
 _atom_site_fract_x
 _atom_site_fract_y
 _atom_site_fract_z
 _atom_site_occupancy
  C  C0  1  0.72977000  0.37337000  0.13780000  1
  C  C1  1  0.72006000  0.39914000  0.17728000  1
  C  C2  1  0.61090000  0.29460000  0.12350000  1
  C  C3  1  0.58672000  0.24152000  0.09920000  1
  C  C4  1  0.68695000  0.37390000  0.18695000  1
  C  C5  1  0.65850000  0.31700000  0.15850000  1
  C  C6  1  0.60940000  0.21880000  0.10940000  1
  C  C7  1  0.57680000  0.15360000  0.07680000  1
  C  C8  1  0.79910000  0.50000000  0.29910000  1
  C  C9  1  0.23557000  0.64360000  0.37337000  1
  C  C10  1  0.22186000  0.67908000  0.39914000  1
  C  C11  1  0.17110000  0.68370000  0.29460000  1
  C  C12  1  0.14232000  0.65480000  0.24152000  1
  C  C13  1  0.18695000  0.68695000  0.37390000  1
  C  C14  1  0.15850000  0.65850000  0.31700000  1
  C  C15  1  0.10940000  0.60940000  0.21880000  1
  C  C16  1  0.07680000  0.57680000  0.15360000  1
  C  C17  1  0.20090000  0.70090000  0.50000000  1
  C  C18  1  0.27023000  0.40803000  0.64360000  1
  C  C19  1  0.27994000  0.45722000  0.67908000  1
  C  C20  1  0.38910000  0.51260000  0.68370000  1
  C  C21  1  0.41328000  0.51248000  0.65480000  1
  C  C22  1  0.31305000  0.50000000  0.68695000  1
  C  C23  1  0.34150000  0.50000000  0.65850000  1
  C  C24  1  0.39060000  0.50000000  0.60940000  1
  C  C25  1  0.42320000  0.50000000  0.57680000  1
  C  C26  1  0.20090000  0.50000000  0.70090000  1
  C  C27  1  0.76443000  0.13780000  0.40803000  1
  C  C28  1  0.77814000  0.17728000  0.45722000  1
  C  C29  1  0.82890000  0.12350000  0.51260000  1
  C  C30  1  0.85768000  0.09920000  0.51248000  1
  C  C31  1  0.81305000  0.18695000  0.50000000  1
  C  C32  1  0.84150000  0.15850000  0.50000000  1
  C  C33  1  0.89060000  0.10940000  0.50000000  1
  C  C34  1  0.92320000  0.07680000  0.50000000  1
  C  C35  1  0.79910000  0.29910000  0.50000000  1
  C  C36  1  0.23557000  0.59197000  0.86220000  1
  C  C37  1  0.22186000  0.54278000  0.82272000  1
  C  C38  1  0.17110000  0.48740000  0.87650000  1
  C  C39  1  0.14232000  0.48752000  0.90080000  1
  C  C40  1  0.18695000  0.50000000  0.81305000  1
  C  C41  1  0.15850000  0.50000000  0.84150000  1
  C  C42  1  0.10940000  0.50000000  0.89060000  1
  C  C43  1  0.07680000  0.50000000  0.92320000  1
  C  C44  1  0.72977000  0.35640000  0.59197000  1
  C  C45  1  0.72006000  0.32092000  0.54278000  1
  C  C46  1  0.61090000  0.31630000  0.48740000  1
  C  C47  1  0.58672000  0.34520000  0.48752000  1
  C  C48  1  0.68695000  0.31305000  0.50000000  1
  C  C49  1  0.65850000  0.34150000  0.50000000  1
  C  C50  1  0.60940000  0.39060000  0.50000000  1
  C  C51  1  0.57680000  0.42320000  0.50000000  1
  C  C52  1  0.76443000  0.62663000  0.35640000  1
  C  C53  1  0.77814000  0.60086000  0.32092000  1
  C  C54  1  0.82890000  0.70540000  0.31630000  1
  C  C55  1  0.85768000  0.75848000  0.34520000  1
  C  C56  1  0.81305000  0.62610000  0.31305000  1
  C  C57  1  0.84150000  0.68300000  0.34150000  1
  C  C58  1  0.89060000  0.78120000  0.39060000  1
  C  C59  1  0.92320000  0.84640000  0.42320000  1
  C  C60  1  0.27023000  0.86220000  0.62663000  1
  C  C61  1  0.27994000  0.82272000  0.60086000  1
  C  C62  1  0.38910000  0.87650000  0.70540000  1
  C  C63  1  0.41328000  0.90080000  0.75848000  1
  C  C64  1  0.31305000  0.81305000  0.62610000  1
  C  C65  1  0.34150000  0.84150000  0.68300000  1
  C  C66  1  0.39060000  0.89060000  0.78120000  1
  C  C67  1  0.42320000  0.92320000  0.84640000  1
  C  C68  1  0.59197000  0.86220000  0.23557000  1
  C  C69  1  0.54278000  0.82272000  0.22186000  1
  C  C70  1  0.48740000  0.87650000  0.17110000  1
  C  C71  1  0.48752000  0.90080000  0.14232000  1
  C  C72  1  0.50000000  0.81305000  0.18695000  1
  C  C73  1  0.50000000  0.84150000  0.15850000  1
  C  C74  1  0.50000000  0.89060000  0.10940000  1
  C  C75  1  0.50000000  0.92320000  0.07680000  1
  C  C76  1  0.50000000  0.70090000  0.20090000  1
  C  C77  1  0.62663000  0.27023000  0.86220000  1
  C  C78  1  0.60086000  0.27994000  0.82272000  1
  C  C79  1  0.70540000  0.38910000  0.87650000  1
  C  C80  1  0.75848000  0.41328000  0.90080000  1
  C  C81  1  0.62610000  0.31305000  0.81305000  1
  C  C82  1  0.68300000  0.34150000  0.84150000  1
  C  C83  1  0.78120000  0.39060000  0.89060000  1
  C  C84  1  0.84640000  0.42320000  0.92320000  1
  C  C85  1  0.50000000  0.20090000  0.70090000  1
  C  C86  1  0.40803000  0.64360000  0.27023000  1
  C  C87  1  0.45722000  0.67908000  0.27994000  1
  C  C88  1  0.51260000  0.68370000  0.38910000  1
  C  C89  1  0.51248000  0.65480000  0.41328000  1
  C  C90  1  0.50000000  0.68695000  0.31305000  1
  C  C91  1  0.50000000  0.65850000  0.34150000  1
  C  C92  1  0.50000000  0.60940000  0.39060000  1
  C  C93  1  0.50000000  0.57680000  0.42320000  1
  C  C94  1  0.37337000  0.23557000  0.64360000  1
  C  C95  1  0.39914000  0.22186000  0.67908000  1
  C  C96  1  0.29460000  0.17110000  0.68370000  1
  C  C97  1  0.24152000  0.14232000  0.65480000  1
  C  C98  1  0.37390000  0.18695000  0.68695000  1
  C  C99  1  0.31700000  0.15850000  0.65850000  1
  C  C100  1  0.21880000  0.10940000  0.60940000  1
  C  C101  1  0.15360000  0.07680000  0.57680000  1
  C  C102  1  0.62663000  0.35640000  0.76443000  1
  C  C103  1  0.60086000  0.32092000  0.77814000  1
  C  C104  1  0.70540000  0.31630000  0.82890000  1
  C  C105  1  0.75848000  0.34520000  0.85768000  1
  C  C106  1  0.50000000  0.29910000  0.79910000  1
  C  C107  1  0.59197000  0.72977000  0.35640000  1
  C  C108  1  0.54278000  0.72006000  0.32092000  1
  C  C109  1  0.48740000  0.61090000  0.31630000  1
  C  C110  1  0.48752000  0.58672000  0.34520000  1
  C  C111  1  0.50000000  0.79910000  0.29910000  1
  C  C112  1  0.37337000  0.13780000  0.72977000  1
  C  C113  1  0.39914000  0.17728000  0.72006000  1
  C  C114  1  0.29460000  0.12350000  0.61090000  1
  C  C115  1  0.24152000  0.09920000  0.58672000  1
  C  C116  1  0.40803000  0.76443000  0.13780000  1
  C  C117  1  0.45722000  0.77814000  0.17728000  1
  C  C118  1  0.51260000  0.82890000  0.12350000  1
  C  C119  1  0.51248000  0.85768000  0.09920000  1
  C  C120  1  0.35640000  0.76443000  0.62663000  1
  C  C121  1  0.32092000  0.77814000  0.60086000  1
  C  C122  1  0.31630000  0.82890000  0.70540000  1
  C  C123  1  0.34520000  0.85768000  0.75848000  1
  C  C124  1  0.29910000  0.79910000  0.50000000  1
  C  C125  1  0.13780000  0.72977000  0.37337000  1
  C  C126  1  0.17728000  0.72006000  0.39914000  1
  C  C127  1  0.12350000  0.61090000  0.29460000  1
  C  C128  1  0.09920000  0.58672000  0.24152000  1
  C  C129  1  0.35640000  0.59197000  0.72977000  1
  C  C130  1  0.32092000  0.54278000  0.72006000  1
  C  C131  1  0.31630000  0.48740000  0.61090000  1
  C  C132  1  0.34520000  0.48752000  0.58672000  1
  C  C133  1  0.29910000  0.50000000  0.79910000  1
  C  C134  1  0.86220000  0.23557000  0.59197000  1
  C  C135  1  0.82272000  0.22186000  0.54278000  1
  C  C136  1  0.87650000  0.17110000  0.48740000  1
  C  C137  1  0.90080000  0.14232000  0.48752000  1
  C  C138  1  0.70090000  0.20090000  0.50000000  1
  C  C139  1  0.64360000  0.37337000  0.23557000  1
  C  C140  1  0.67908000  0.39914000  0.22186000  1
  C  C141  1  0.68370000  0.29460000  0.17110000  1
  C  C142  1  0.65480000  0.24152000  0.14232000  1
  C  C143  1  0.70090000  0.50000000  0.20090000  1
  C  C144  1  0.64360000  0.27023000  0.40803000  1
  C  C145  1  0.67908000  0.27994000  0.45722000  1
  C  C146  1  0.68370000  0.38910000  0.51260000  1
  C  C147  1  0.65480000  0.41328000  0.51248000  1
  C  C148  1  0.86220000  0.62663000  0.27023000  1
  C  C149  1  0.82272000  0.60086000  0.27994000  1
  C  C150  1  0.87650000  0.70540000  0.38910000  1
  C  C151  1  0.90080000  0.75848000  0.41328000  1
  C  C152  1  0.13780000  0.40803000  0.76443000  1
  C  C153  1  0.17728000  0.45722000  0.77814000  1
  C  C154  1  0.12350000  0.51260000  0.82890000  1
  C  C155  1  0.09920000  0.51248000  0.85768000  1
  C  C156  1  0.27023000  0.62663000  0.86220000  1
  C  C157  1  0.27994000  0.60086000  0.82272000  1
  C  C158  1  0.38910000  0.70540000  0.87650000  1
  C  C159  1  0.41328000  0.75848000  0.90080000  1
  C  C160  1  0.31305000  0.62610000  0.81305000  1
  C  C161  1  0.34150000  0.68300000  0.84150000  1
  C  C162  1  0.39060000  0.78120000  0.89060000  1
  C  C163  1  0.42320000  0.84640000  0.92320000  1
  C  C164  1  0.76443000  0.35640000  0.62663000  1
  C  C165  1  0.77814000  0.32092000  0.60086000  1
  C  C166  1  0.82890000  0.31630000  0.70540000  1
  C  C167  1  0.85768000  0.34520000  0.75848000  1
  C  C168  1  0.81305000  0.31305000  0.62610000  1
  C  C169  1  0.84150000  0.34150000  0.68300000  1
  C  C170  1  0.89060000  0.39060000  0.78120000  1
  C  C171  1  0.92320000  0.42320000  0.84640000  1
  C  C172  1  0.72977000  0.59197000  0.35640000  1
  C  C173  1  0.72006000  0.54278000  0.32092000  1
  C  C174  1  0.61090000  0.48740000  0.31630000  1
  C  C175  1  0.58672000  0.48752000  0.34520000  1
  C  C176  1  0.68695000  0.50000000  0.31305000  1
  C  C177  1  0.65850000  0.50000000  0.34150000  1
  C  C178  1  0.60940000  0.50000000  0.39060000  1
  C  C179  1  0.57680000  0.50000000  0.42320000  1
  C  C180  1  0.23557000  0.86220000  0.59197000  1
  C  C181  1  0.22186000  0.82272000  0.54278000  1
  C  C182  1  0.17110000  0.87650000  0.48740000  1
  C  C183  1  0.14232000  0.90080000  0.48752000  1
  C  C184  1  0.18695000  0.81305000  0.50000000  1
  C  C185  1  0.15850000  0.84150000  0.50000000  1
  C  C186  1  0.10940000  0.89060000  0.50000000  1
  C  C187  1  0.07680000  0.92320000  0.50000000  1
  C  C188  1  0.76443000  0.40803000  0.13780000  1
  C  C189  1  0.77814000  0.45722000  0.17728000  1
  C  C190  1  0.82890000  0.51260000  0.12350000  1
  C  C191  1  0.85768000  0.51248000  0.09920000  1
  C  C192  1  0.81305000  0.50000000  0.18695000  1
  C  C193  1  0.84150000  0.50000000  0.15850000  1
  C  C194  1  0.89060000  0.50000000  0.10940000  1
  C  C195  1  0.92320000  0.50000000  0.07680000  1
  C  C196  1  0.27023000  0.64360000  0.40803000  1
  C  C197  1  0.27994000  0.67908000  0.45722000  1
  C  C198  1  0.38910000  0.68370000  0.51260000  1
  C  C199  1  0.41328000  0.65480000  0.51248000  1
  C  C200  1  0.31305000  0.68695000  0.50000000  1
  C  C201  1  0.34150000  0.65850000  0.50000000  1
  C  C202  1  0.39060000  0.60940000  0.50000000  1
  C  C203  1  0.42320000  0.57680000  0.50000000  1
  C  C204  1  0.23557000  0.37337000  0.64360000  1
  C  C205  1  0.22186000  0.39914000  0.67908000  1
  C  C206  1  0.17110000  0.29460000  0.68370000  1
  C  C207  1  0.14232000  0.24152000  0.65480000  1
  C  C208  1  0.18695000  0.37390000  0.68695000  1
  C  C209  1  0.15850000  0.31700000  0.65850000  1
  C  C210  1  0.10940000  0.21880000  0.60940000  1
  C  C211  1  0.07680000  0.15360000  0.57680000  1
  C  C212  1  0.72977000  0.13780000  0.37337000  1
  C  C213  1  0.72006000  0.17728000  0.39914000  1
  C  C214  1  0.61090000  0.12350000  0.29460000  1
  C  C215  1  0.58672000  0.09920000  0.24152000  1
  C  C216  1  0.68695000  0.18695000  0.37390000  1
  C  C217  1  0.65850000  0.15850000  0.31700000  1
  C  C218  1  0.60940000  0.10940000  0.21880000  1
  C  C219  1  0.57680000  0.07680000  0.15360000  1
  C  C220  1  0.40803000  0.13780000  0.76443000  1
  C  C221  1  0.45722000  0.17728000  0.77814000  1
  C  C222  1  0.51260000  0.12350000  0.82890000  1
  C  C223  1  0.51248000  0.09920000  0.85768000  1
  C  C224  1  0.50000000  0.18695000  0.81305000  1
  C  C225  1  0.50000000  0.15850000  0.84150000  1
  C  C226  1  0.50000000  0.10940000  0.89060000  1
  C  C227  1  0.50000000  0.07680000  0.92320000  1
  C  C228  1  0.37337000  0.72977000  0.13780000  1
  C  C229  1  0.39914000  0.72006000  0.17728000  1
  C  C230  1  0.29460000  0.61090000  0.12350000  1
  C  C231  1  0.24152000  0.58672000  0.09920000  1
  C  C232  1  0.37390000  0.68695000  0.18695000  1
  C  C233  1  0.31700000  0.65850000  0.15850000  1
  C  C234  1  0.21880000  0.60940000  0.10940000  1
  C  C235  1  0.15360000  0.57680000  0.07680000  1
  C  C236  1  0.59197000  0.35640000  0.72977000  1
  C  C237  1  0.54278000  0.32092000  0.72006000  1
  C  C238  1  0.48740000  0.31630000  0.61090000  1
  C  C239  1  0.48752000  0.34520000  0.58672000  1
  C  C240  1  0.50000000  0.31305000  0.68695000  1
  C  C241  1  0.50000000  0.34150000  0.65850000  1
  C  C242  1  0.50000000  0.39060000  0.60940000  1
  C  C243  1  0.50000000  0.42320000  0.57680000  1
  C  C244  1  0.62663000  0.76443000  0.35640000  1
  C  C245  1  0.60086000  0.77814000  0.32092000  1
  C  C246  1  0.70540000  0.82890000  0.31630000  1
  C  C247  1  0.75848000  0.85768000  0.34520000  1
  C  C248  1  0.62610000  0.81305000  0.31305000  1
  C  C249  1  0.68300000  0.84150000  0.34150000  1
  C  C250  1  0.78120000  0.89060000  0.39060000  1
  C  C251  1  0.84640000  0.92320000  0.42320000  1
  C  C252  1  0.37337000  0.64360000  0.23557000  1
  C  C253  1  0.39914000  0.67908000  0.22186000  1
  C  C254  1  0.29460000  0.68370000  0.17110000  1
  C  C255  1  0.24152000  0.65480000  0.14232000  1
  C  C256  1  0.40803000  0.27023000  0.64360000  1
  C  C257  1  0.45722000  0.27994000  0.67908000  1
  C  C258  1  0.51260000  0.38910000  0.68370000  1
  C  C259  1  0.51248000  0.41328000  0.65480000  1
  C  C260  1  0.62663000  0.86220000  0.27023000  1
  C  C261  1  0.60086000  0.82272000  0.27994000  1
  C  C262  1  0.70540000  0.87650000  0.38910000  1
  C  C263  1  0.75848000  0.90080000  0.41328000  1
  C  C264  1  0.59197000  0.23557000  0.86220000  1
  C  C265  1  0.54278000  0.22186000  0.82272000  1
  C  C266  1  0.48740000  0.17110000  0.87650000  1
  C  C267  1  0.48752000  0.14232000  0.90080000  1
  C  C268  1  0.64360000  0.23557000  0.37337000  1
  C  C269  1  0.67908000  0.22186000  0.39914000  1
  C  C270  1  0.68370000  0.17110000  0.29460000  1
  C  C271  1  0.65480000  0.14232000  0.24152000  1
  C  C272  1  0.86220000  0.27023000  0.62663000  1
  C  C273  1  0.82272000  0.27994000  0.60086000  1
  C  C274  1  0.87650000  0.38910000  0.70540000  1
  C  C275  1  0.90080000  0.41328000  0.75848000  1
  C  C276  1  0.64360000  0.40803000  0.27023000  1
  C  C277  1  0.67908000  0.45722000  0.27994000  1
  C  C278  1  0.68370000  0.51260000  0.38910000  1
  C  C279  1  0.65480000  0.51248000  0.41328000  1
  C  C280  1  0.13780000  0.76443000  0.40803000  1
  C  C281  1  0.17728000  0.77814000  0.45722000  1
  C  C282  1  0.12350000  0.82890000  0.51260000  1
  C  C283  1  0.09920000  0.85768000  0.51248000  1
  C  C284  1  0.35640000  0.62663000  0.76443000  1
  C  C285  1  0.32092000  0.60086000  0.77814000  1
  C  C286  1  0.31630000  0.70540000  0.82890000  1
  C  C287  1  0.34520000  0.75848000  0.85768000  1
  C  C288  1  0.35640000  0.72977000  0.59197000  1
  C  C289  1  0.32092000  0.72006000  0.54278000  1
  C  C290  1  0.31630000  0.61090000  0.48740000  1
  C  C291  1  0.34520000  0.58672000  0.48752000  1
  C  C292  1  0.13780000  0.37337000  0.72977000  1
  C  C293  1  0.17728000  0.39914000  0.72006000  1
  C  C294  1  0.12350000  0.29460000  0.61090000  1
  C  C295  1  0.09920000  0.24152000  0.58672000  1
  C  C296  1  0.86220000  0.59197000  0.23557000  1
  C  C297  1  0.82272000  0.54278000  0.22186000  1
  C  C298  1  0.87650000  0.48740000  0.17110000  1
  C  C299  1  0.90080000  0.48752000  0.14232000  1
  Co  Co300  1  0.75000000  0.50000000  0.25000000  1
  Co  Co301  1  0.25000000  0.75000000  0.50000000  1
  Co  Co302  1  0.25000000  0.50000000  0.75000000  1
  Co  Co303  1  0.75000000  0.25000000  0.50000000  1
  Co  Co304  1  0.50000000  0.75000000  0.25000000  1
  Co  Co305  1  0.50000000  0.25000000  0.75000000  1
  H  H306  1  0.71391000  0.33845000  0.11664000  1
  H  H307  1  0.59471000  0.31223000  0.11564000  1
  H  H308  1  0.55246000  0.22270000  0.07456000  1
  H  H309  1  0.22181000  0.62454000  0.33845000  1
  H  H310  1  0.19659000  0.71752000  0.31223000  1
  H  H311  1  0.14814000  0.67024000  0.22270000  1
  H  H312  1  0.28609000  0.40273000  0.62454000  1
  H  H313  1  0.40529000  0.52093000  0.71752000  1
  H  H314  1  0.44754000  0.52210000  0.67024000  1
  H  H315  1  0.77819000  0.11664000  0.40273000  1
  H  H316  1  0.80341000  0.11564000  0.52093000  1
  H  H317  1  0.85186000  0.07456000  0.52210000  1
  H  H318  1  0.22181000  0.59727000  0.88336000  1
  H  H319  1  0.19659000  0.47907000  0.88436000  1
  H  H320  1  0.14814000  0.47790000  0.92544000  1
  H  H321  1  0.71391000  0.37546000  0.59727000  1
  H  H322  1  0.59471000  0.28248000  0.47907000  1
  H  H323  1  0.55246000  0.32976000  0.47790000  1
  H  H324  1  0.77819000  0.66155000  0.37546000  1
  H  H325  1  0.80341000  0.68777000  0.28248000  1
  H  H326  1  0.85186000  0.77730000  0.32976000  1
  H  H327  1  0.28609000  0.88336000  0.66155000  1
  H  H328  1  0.40529000  0.88436000  0.68777000  1
  H  H329  1  0.44754000  0.92544000  0.77730000  1
  H  H330  1  0.59727000  0.88336000  0.22181000  1
  H  H331  1  0.47907000  0.88436000  0.19659000  1
  H  H332  1  0.47790000  0.92544000  0.14814000  1
  H  H333  1  0.66155000  0.28609000  0.88336000  1
  H  H334  1  0.68777000  0.40529000  0.88436000  1
  H  H335  1  0.77730000  0.44754000  0.92544000  1
  H  H336  1  0.40273000  0.62454000  0.28609000  1
  H  H337  1  0.52093000  0.71752000  0.40529000  1
  H  H338  1  0.52210000  0.67024000  0.44754000  1
  H  H339  1  0.33845000  0.22181000  0.62454000  1
  H  H340  1  0.31223000  0.19659000  0.71752000  1
  H  H341  1  0.22270000  0.14814000  0.67024000  1
  H  H342  1  0.66155000  0.37546000  0.77819000  1
  H  H343  1  0.68777000  0.28248000  0.80341000  1
  H  H344  1  0.77730000  0.32976000  0.85186000  1
  H  H345  1  0.59727000  0.71391000  0.37546000  1
  H  H346  1  0.47907000  0.59471000  0.28248000  1
  H  H347  1  0.47790000  0.55246000  0.32976000  1
  H  H348  1  0.33845000  0.11664000  0.71391000  1
  H  H349  1  0.31223000  0.11564000  0.59471000  1
  H  H350  1  0.22270000  0.07456000  0.55246000  1
  H  H351  1  0.40273000  0.77819000  0.11664000  1
  H  H352  1  0.52093000  0.80341000  0.11564000  1
  H  H353  1  0.52210000  0.85186000  0.07456000  1
  H  H354  1  0.37546000  0.77819000  0.66155000  1
  H  H355  1  0.28248000  0.80341000  0.68777000  1
  H  H356  1  0.32976000  0.85186000  0.77730000  1
  H  H357  1  0.11664000  0.71391000  0.33845000  1
  H  H358  1  0.11564000  0.59471000  0.31223000  1
  H  H359  1  0.07456000  0.55246000  0.22270000  1
  H  H360  1  0.37546000  0.59727000  0.71391000  1
  H  H361  1  0.28248000  0.47907000  0.59471000  1
  H  H362  1  0.32976000  0.47790000  0.55246000  1
  H  H363  1  0.88336000  0.22181000  0.59727000  1
  H  H364  1  0.88436000  0.19659000  0.47907000  1
  H  H365  1  0.92544000  0.14814000  0.47790000  1
  H  H366  1  0.62454000  0.33845000  0.22181000  1
  H  H367  1  0.71752000  0.31223000  0.19659000  1
  H  H368  1  0.67024000  0.22270000  0.14814000  1
  H  H369  1  0.62454000  0.28609000  0.40273000  1
  H  H370  1  0.71752000  0.40529000  0.52093000  1
  H  H371  1  0.67024000  0.44754000  0.52210000  1
  H  H372  1  0.88336000  0.66155000  0.28609000  1
  H  H373  1  0.88436000  0.68777000  0.40529000  1
  H  H374  1  0.92544000  0.77730000  0.44754000  1
  H  H375  1  0.11664000  0.40273000  0.77819000  1
  H  H376  1  0.11564000  0.52093000  0.80341000  1
  H  H377  1  0.07456000  0.52210000  0.85186000  1
  H  H378  1  0.28609000  0.66155000  0.88336000  1
  H  H379  1  0.40529000  0.68777000  0.88436000  1
  H  H380  1  0.44754000  0.77730000  0.92544000  1
  H  H381  1  0.77819000  0.37546000  0.66155000  1
  H  H382  1  0.80341000  0.28248000  0.68777000  1
  H  H383  1  0.85186000  0.32976000  0.77730000  1
  H  H384  1  0.71391000  0.59727000  0.37546000  1
  H  H385  1  0.59471000  0.47907000  0.28248000  1
  H  H386  1  0.55246000  0.47790000  0.32976000  1
  H  H387  1  0.22181000  0.88336000  0.59727000  1
  H  H388  1  0.19659000  0.88436000  0.47907000  1
  H  H389  1  0.14814000  0.92544000  0.47790000  1
  H  H390  1  0.77819000  0.40273000  0.11664000  1
  H  H391  1  0.80341000  0.52093000  0.11564000  1
  H  H392  1  0.85186000  0.52210000  0.07456000  1
  H  H393  1  0.28609000  0.62454000  0.40273000  1
  H  H394  1  0.40529000  0.71752000  0.52093000  1
  H  H395  1  0.44754000  0.67024000  0.52210000  1
  H  H396  1  0.22181000  0.33845000  0.62454000  1
  H  H397  1  0.19659000  0.31223000  0.71752000  1
  H  H398  1  0.14814000  0.22270000  0.67024000  1
  H  H399  1  0.71391000  0.11664000  0.33845000  1
  H  H400  1  0.59471000  0.11564000  0.31223000  1
  H  H401  1  0.55246000  0.07456000  0.22270000  1
  H  H402  1  0.40273000  0.11664000  0.77819000  1
  H  H403  1  0.52093000  0.11564000  0.80341000  1
  H  H404  1  0.52210000  0.07456000  0.85186000  1
  H  H405  1  0.33845000  0.71391000  0.11664000  1
  H  H406  1  0.31223000  0.59471000  0.11564000  1
  H  H407  1  0.22270000  0.55246000  0.07456000  1
  H  H408  1  0.59727000  0.37546000  0.71391000  1
  H  H409  1  0.47907000  0.28248000  0.59471000  1
  H  H410  1  0.47790000  0.32976000  0.55246000  1
  H  H411  1  0.66155000  0.77819000  0.37546000  1
  H  H412  1  0.68777000  0.80341000  0.28248000  1
  H  H413  1  0.77730000  0.85186000  0.32976000  1
  H  H414  1  0.33845000  0.62454000  0.22181000  1
  H  H415  1  0.31223000  0.71752000  0.19659000  1
  H  H416  1  0.22270000  0.67024000  0.14814000  1
  H  H417  1  0.40273000  0.28609000  0.62454000  1
  H  H418  1  0.52093000  0.40529000  0.71752000  1
  H  H419  1  0.52210000  0.44754000  0.67024000  1
  H  H420  1  0.66155000  0.88336000  0.28609000  1
  H  H421  1  0.68777000  0.88436000  0.40529000  1
  H  H422  1  0.77730000  0.92544000  0.44754000  1
  H  H423  1  0.59727000  0.22181000  0.88336000  1
  H  H424  1  0.47907000  0.19659000  0.88436000  1
  H  H425  1  0.47790000  0.14814000  0.92544000  1
  H  H426  1  0.62454000  0.22181000  0.33845000  1
  H  H427  1  0.71752000  0.19659000  0.31223000  1
  H  H428  1  0.67024000  0.14814000  0.22270000  1
  H  H429  1  0.88336000  0.28609000  0.66155000  1
  H  H430  1  0.88436000  0.40529000  0.68777000  1
  H  H431  1  0.92544000  0.44754000  0.77730000  1
  H  H432  1  0.62454000  0.40273000  0.28609000  1
  H  H433  1  0.71752000  0.52093000  0.40529000  1
  H  H434  1  0.67024000  0.52210000  0.44754000  1
  H  H435  1  0.11664000  0.77819000  0.40273000  1
  H  H436  1  0.11564000  0.80341000  0.52093000  1
  H  H437  1  0.07456000  0.85186000  0.52210000  1
  H  H438  1  0.37546000  0.66155000  0.77819000  1
  H  H439  1  0.28248000  0.68777000  0.80341000  1
  H  H440  1  0.32976000  0.77730000  0.85186000  1
  H  H441  1  0.37546000  0.71391000  0.59727000  1
  H  H442  1  0.28248000  0.59471000  0.47907000  1
  H  H443  1  0.32976000  0.55246000  0.47790000  1
  H  H444  1  0.11664000  0.33845000  0.71391000  1
  H  H445  1  0.11564000  0.31223000  0.59471000  1
  H  H446  1  0.07456000  0.22270000  0.55246000  1
  H  H447  1  0.88336000  0.59727000  0.22181000  1
  H  H448  1  0.88436000  0.47907000  0.19659000  1
  H  H449  1  0.92544000  0.47790000  0.14814000  1
  N  N450  1  0.74850000  0.44811000  0.19661000  1
  N  N451  1  0.25150000  0.69961000  0.44811000  1
  N  N452  1  0.25150000  0.44811000  0.69961000  1
  N  N453  1  0.74850000  0.19661000  0.44811000  1
  N  N454  1  0.25150000  0.55189000  0.80339000  1
  N  N455  1  0.74850000  0.30039000  0.55189000  1
  N  N456  1  0.74850000  0.55189000  0.30039000  1
  N  N457  1  0.25150000  0.80339000  0.55189000  1
  N  N458  1  0.55189000  0.80339000  0.25150000  1
  N  N459  1  0.55189000  0.25150000  0.80339000  1
  N  N460  1  0.44811000  0.69961000  0.25150000  1
  N  N461  1  0.44811000  0.25150000  0.69961000  1
  N  N462  1  0.55189000  0.30039000  0.74850000  1
  N  N463  1  0.55189000  0.74850000  0.30039000  1
  N  N464  1  0.44811000  0.19661000  0.74850000  1
  N  N465  1  0.44811000  0.74850000  0.19661000  1
  N  N466  1  0.30039000  0.74850000  0.55189000  1
  N  N467  1  0.19661000  0.74850000  0.44811000  1
  N  N468  1  0.30039000  0.55189000  0.74850000  1
  N  N469  1  0.80339000  0.25150000  0.55189000  1
  N  N470  1  0.69961000  0.44811000  0.25150000  1
  N  N471  1  0.69961000  0.25150000  0.44811000  1
  N  N472  1  0.80339000  0.55189000  0.25150000  1
  N  N473  1  0.19661000  0.44811000  0.74850000  1
  O  O474  1  0.61370000  0.14080000  0.09050000  1
  O  O475  1  0.59800000  0.14060000  0.09260000  1
  O  O476  1  0.82990000  0.50000000  0.32990000  1
  O  O477  1  0.56784000  1.00000000  0.07058000  1
  O  O478  1  0.56482000  1.00000000  1.00000000  1
  O  O479  1  0.05030000  0.52710000  0.14080000  1
  O  O480  1  0.04800000  0.54260000  0.14060000  1
  O  O481  1  0.17010000  0.67010000  0.50000000  1
  O  O482  1  0.92942000  0.43216000  0.00000000  1
  O  O483  1  0.00000000  0.43518000  0.00000000  1
  O  O484  1  0.38630000  0.47680000  0.52710000  1
  O  O485  1  0.40200000  0.49460000  0.54260000  1
  O  O486  1  0.17010000  0.50000000  0.67010000  1
  O  O487  1  0.43216000  0.50274000  0.43216000  1
  O  O488  1  0.43518000  0.43518000  0.43518000  1
  O  O489  1  0.94970000  0.09050000  0.47680000  1
  O  O490  1  0.95200000  0.09260000  0.49460000  1
  O  O491  1  0.82990000  0.32990000  0.50000000  1
  O  O492  1  0.07058000  0.07058000  0.50274000  1
  O  O493  1  0.00000000  1.00000000  0.43518000  1
  O  O494  1  0.05030000  0.52320000  0.90950000  1
  O  O495  1  0.04800000  0.50540000  0.90740000  1
  O  O496  1  0.92942000  0.49726000  0.92942000  1
  O  O497  1  0.00000000  0.56482000  0.00000000  1
  O  O498  1  0.61370000  0.47290000  0.52320000  1
  O  O499  1  0.59800000  0.45740000  0.50540000  1
  O  O500  1  0.56784000  0.56784000  0.49726000  1
  O  O501  1  0.56482000  0.56482000  0.56482000  1
  O  O502  1  0.94970000  0.85920000  0.47290000  1
  O  O503  1  0.95200000  0.85940000  0.45740000  1
  O  O504  1  0.07058000  0.00000000  0.56784000  1
  O  O505  1  0.00000000  1.00000000  0.56482000  1
  O  O506  1  0.38630000  0.90950000  0.85920000  1
  O  O507  1  0.40200000  0.90740000  0.85940000  1
  O  O508  1  0.43216000  0.92942000  0.00000000  1
  O  O509  1  0.43518000  1.00000000  1.00000000  1
  O  O510  1  0.52320000  0.90950000  0.05030000  1
  O  O511  1  0.50540000  0.90740000  0.04800000  1
  O  O512  1  0.50000000  0.67010000  0.17010000  1
  O  O513  1  0.49726000  0.92942000  0.92942000  1
  O  O514  1  0.85920000  0.38630000  0.90950000  1
  O  O515  1  0.85940000  0.40200000  0.90740000  1
  O  O516  1  0.50000000  0.17010000  0.67010000  1
  O  O517  1  0.00000000  0.43216000  0.92942000  1
  O  O518  1  0.47680000  0.52710000  0.38630000  1
  O  O519  1  0.49460000  0.54260000  0.40200000  1
  O  O520  1  0.50274000  0.43216000  0.43216000  1
  O  O521  1  0.14080000  0.05030000  0.52710000  1
  O  O522  1  0.14060000  0.04800000  0.54260000  1
  O  O523  1  0.00000000  0.92942000  0.43216000  1
  O  O524  1  0.85920000  0.47290000  0.94970000  1
  O  O525  1  0.85940000  0.45740000  0.95200000  1
  O  O526  1  0.50000000  0.32990000  0.82990000  1
  O  O527  1  0.00000000  0.56784000  0.07058000  1
  O  O528  1  0.52320000  0.61370000  0.47290000  1
  O  O529  1  0.50540000  0.59800000  0.45740000  1
  O  O530  1  0.50000000  0.82990000  0.32990000  1
  O  O531  1  0.49726000  0.56784000  0.56784000  1
  O  O532  1  0.14080000  0.09050000  0.61370000  1
  O  O533  1  0.14060000  0.09260000  0.59800000  1
  O  O534  1  0.00000000  0.07058000  0.56784000  1
  O  O535  1  0.47680000  0.94970000  0.09050000  1
  O  O536  1  0.49460000  0.95200000  0.09260000  1
  O  O537  1  0.50274000  0.07058000  0.07058000  1
  O  O538  1  0.47290000  0.94970000  0.85920000  1
  O  O539  1  0.45740000  0.95200000  0.85940000  1
  O  O540  1  0.32990000  0.82990000  0.50000000  1
  O  O541  1  0.56784000  0.07058000  1.00000000  1
  O  O542  1  0.09050000  0.61370000  0.14080000  1
  O  O543  1  0.09260000  0.59800000  0.14060000  1
  O  O544  1  0.07058000  0.56784000  0.00000000  1
  O  O545  1  0.47290000  0.52320000  0.61370000  1
  O  O546  1  0.45740000  0.50540000  0.59800000  1
  O  O547  1  0.32990000  0.50000000  0.82990000  1
  O  O548  1  0.56784000  0.49726000  0.56784000  1
  O  O549  1  0.90950000  0.05030000  0.52320000  1
  O  O550  1  0.90740000  0.04800000  0.50540000  1
  O  O551  1  0.67010000  0.17010000  0.50000000  1
  O  O552  1  0.92942000  0.92942000  0.49726000  1
  O  O553  1  0.52710000  0.14080000  0.05030000  1
  O  O554  1  0.54260000  0.14060000  0.04800000  1
  O  O555  1  0.67010000  0.50000000  0.17010000  1
  O  O556  1  0.43216000  1.00000000  0.92942000  1
  O  O557  1  0.52710000  0.38630000  0.47680000  1
  O  O558  1  0.54260000  0.40200000  0.49460000  1
  O  O559  1  0.43216000  0.43216000  0.50274000  1
  O  O560  1  0.90950000  0.85920000  0.38630000  1
  O  O561  1  0.90740000  0.85940000  0.40200000  1
  O  O562  1  0.92942000  0.00000000  0.43216000  1
  O  O563  1  0.09050000  0.47680000  0.94970000  1
  O  O564  1  0.09260000  0.49460000  0.95200000  1
  O  O565  1  0.07058000  0.50274000  0.07058000  1
  O  O566  1  0.38630000  0.85920000  0.90950000  1
  O  O567  1  0.40200000  0.85940000  0.90740000  1
  O  O568  1  0.94970000  0.47290000  0.85920000  1
  O  O569  1  0.95200000  0.45740000  0.85940000  1
  O  O570  1  0.61370000  0.52320000  0.47290000  1
  O  O571  1  0.59800000  0.50540000  0.45740000  1
  O  O572  1  0.05030000  0.90950000  0.52320000  1
  O  O573  1  0.04800000  0.90740000  0.50540000  1
  O  O574  1  0.94970000  0.47680000  0.09050000  1
  O  O575  1  0.95200000  0.49460000  0.09260000  1
  O  O576  1  0.38630000  0.52710000  0.47680000  1
  O  O577  1  0.40200000  0.54260000  0.49460000  1
  O  O578  1  0.05030000  0.14080000  0.52710000  1
  O  O579  1  0.04800000  0.14060000  0.54260000  1
  O  O580  1  0.61370000  0.09050000  0.14080000  1
  O  O581  1  0.59800000  0.09260000  0.14060000  1
  O  O582  1  0.47680000  0.09050000  0.94970000  1
  O  O583  1  0.49460000  0.09260000  0.95200000  1
  O  O584  1  0.14080000  0.61370000  0.09050000  1
  O  O585  1  0.14060000  0.59800000  0.09260000  1
  O  O586  1  0.52320000  0.47290000  0.61370000  1
  O  O587  1  0.50540000  0.45740000  0.59800000  1
  O  O588  1  0.85920000  0.94970000  0.47290000  1
  O  O589  1  0.85940000  0.95200000  0.45740000  1
  O  O590  1  0.14080000  0.52710000  0.05030000  1
  O  O591  1  0.14060000  0.54260000  0.04800000  1
  O  O592  1  0.47680000  0.38630000  0.52710000  1
  O  O593  1  0.49460000  0.40200000  0.54260000  1
  O  O594  1  0.85920000  0.90950000  0.38630000  1
  O  O595  1  0.85940000  0.90740000  0.40200000  1
  O  O596  1  0.52320000  0.05030000  0.90950000  1
  O  O597  1  0.50540000  0.04800000  0.90740000  1
  O  O598  1  0.52710000  0.05030000  0.14080000  1
  O  O599  1  0.54260000  0.04800000  0.14060000  1
  O  O600  1  0.90950000  0.38630000  0.85920000  1
  O  O601  1  0.90740000  0.40200000  0.85940000  1
  O  O602  1  0.52710000  0.47680000  0.38630000  1
  O  O603  1  0.54260000  0.49460000  0.40200000  1
  O  O604  1  0.09050000  0.94970000  0.47680000  1
  O  O605  1  0.09260000  0.95200000  0.49460000  1
  O  O606  1  0.47290000  0.85920000  0.94970000  1
  O  O607  1  0.45740000  0.85940000  0.95200000  1
  O  O608  1  0.47290000  0.61370000  0.52320000  1
  O  O609  1  0.45740000  0.59800000  0.50540000  1
  O  O610  1  0.09050000  0.14080000  0.61370000  1
  O  O611  1  0.09260000  0.14060000  0.59800000  1
  O  O612  1  0.90950000  0.52320000  0.05030000  1
  O  O613  1  0.90740000  0.50540000  0.04800000  1
  Zr  Zr614  1  0.60120000  0.06530000  0.06530000  1
  Zr  Zr615  1  0.49550000  1.00000000  0.06334000  1
  Zr  Zr616  1  0.00000000  0.46410000  0.06530000  1
  Zr  Zr617  1  0.93666000  0.50450000  1.00000000  1
  Zr  Zr618  1  0.39880000  0.46410000  0.46410000  1
  Zr  Zr619  1  0.50450000  0.56784000  0.50450000  1
  Zr  Zr620  1  0.00000000  0.06530000  0.46410000  1
  Zr  Zr621  1  0.06334000  0.06334000  0.56784000  1
  Zr  Zr622  1  0.00000000  0.53590000  0.93470000  1
  Zr  Zr623  1  0.93666000  0.43216000  0.93666000  1
  Zr  Zr624  1  0.60120000  0.53590000  0.53590000  1
  Zr  Zr625  1  0.49550000  0.49550000  0.43216000  1
  Zr  Zr626  1  0.00000000  0.93470000  0.53590000  1
  Zr  Zr627  1  0.06334000  0.00000000  0.49550000  1
  Zr  Zr628  1  0.39880000  0.93470000  0.93470000  1
  Zr  Zr629  1  0.50450000  0.93666000  1.00000000  1
  Zr  Zr630  1  0.53590000  0.93470000  1.00000000  1
  Zr  Zr631  1  0.43216000  0.93666000  0.93666000  1
  Zr  Zr632  1  0.93470000  0.39880000  0.93470000  1
  Zr  Zr633  1  0.00000000  0.50450000  0.93666000  1
  Zr  Zr634  1  0.46410000  0.46410000  0.39880000  1
  Zr  Zr635  1  0.56784000  0.50450000  0.50450000  1
  Zr  Zr636  1  0.06530000  0.00000000  0.46410000  1
  Zr  Zr637  1  0.00000000  0.93666000  0.50450000  1
  Zr  Zr638  1  0.93470000  0.53590000  0.00000000  1
  Zr  Zr639  1  0.00000000  0.49550000  0.06334000  1
  Zr  Zr640  1  0.53590000  0.60120000  0.53590000  1
  Zr  Zr641  1  0.43216000  0.49550000  0.49550000  1
  Zr  Zr642  1  0.06530000  0.06530000  0.60120000  1
  Zr  Zr643  1  0.00000000  0.06334000  0.49550000  1
  Zr  Zr644  1  0.46410000  0.00000000  0.06530000  1
  Zr  Zr645  1  0.56784000  0.06334000  0.06334000  1
  Zr  Zr646  1  0.53590000  1.00000000  0.93470000  1
  Zr  Zr647  1  0.49550000  0.06334000  1.00000000  1
  Zr  Zr648  1  0.06530000  0.60120000  0.06530000  1
  Zr  Zr649  1  0.06334000  0.49550000  0.00000000  1
  Zr  Zr650  1  0.53590000  0.53590000  0.60120000  1
  Zr  Zr651  1  0.49550000  0.43216000  0.49550000  1
  Zr  Zr652  1  0.93470000  0.00000000  0.53590000  1
  Zr  Zr653  1  0.93666000  0.93666000  0.43216000  1
  Zr  Zr654  1  0.46410000  0.06530000  1.00000000  1
  Zr  Zr655  1  0.50450000  1.00000000  0.93666000  1
  Zr  Zr656  1  0.46410000  0.39880000  0.46410000  1
  Zr  Zr657  1  0.50450000  0.50450000  0.56784000  1
  Zr  Zr658  1  0.93470000  0.93470000  0.39880000  1
  Zr  Zr659  1  0.93666000  0.00000000  0.50450000  1
  Zr  Zr660  1  0.06530000  0.46410000  0.00000000  1
  Zr  Zr661  1  0.06334000  0.56784000  0.06334000  1
