# generated using pymatgen
data_Zr24Co3H72C150(N6O23)2
_symmetry_space_group_name_H-M   'P 1'
_cell_length_a   33.37081669
_cell_length_b   33.37081669
_cell_length_c   33.37081669
_cell_angle_alpha   109.47122063
_cell_angle_beta   109.47122063
_cell_angle_gamma   109.47122063
_symmetry_Int_Tables_number   1
_chemical_formula_structural   Zr24Co3H72C150(N6O23)2
_chemical_formula_sum   'Zr48 Co6 H144 C300 N24 O92'
_cell_volume   28607.41494436
_cell_formula_units_Z   2
loop_
 _symmetry_equiv_pos_site_id
 _symmetry_equiv_pos_as_xyz
  1  'x, y, z'
loop_
 _atom_site_type_symbol
 _atom_site_label
 _atom_site_symmetry_multiplicity
 _atom_site_fract_x
 _atom_site_fract_y
 _atom_site_fract_z
 _atom_site_occupancy
  C  C0  1  0.72063000  0.39909000  0.17606000  1
  C  C1  1  0.72982000  0.37450000  0.13788000  1
  C  C2  1  0.58603000  0.24323000  0.09860000  1
  C  C3  1  0.61180000  0.29480000  0.12340000  1
  C  C4  1  0.65977000  0.31954000  0.15977000  1
  C  C5  1  0.68723000  0.37446000  0.18723000  1
  C  C6  1  0.60894000  0.21788000  0.10894000  1
  C  C7  1  0.58173000  0.16346000  0.08173000  1
  C  C8  1  0.80790000  0.50000000  0.30790000  1
  C  C9  1  0.22303000  0.67846000  0.39909000  1
  C  C10  1  0.23662000  0.64468000  0.37450000  1
  C  C11  1  0.14463000  0.65720000  0.24323000  1
  C  C12  1  0.17140000  0.68300000  0.29480000  1
  C  C13  1  0.15977000  0.65977000  0.31954000  1
  C  C14  1  0.18723000  0.68723000  0.37446000  1
  C  C15  1  0.10894000  0.60894000  0.21788000  1
  C  C16  1  0.08173000  0.58173000  0.16346000  1
  C  C17  1  0.19210000  0.69210000  0.50000000  1
  C  C18  1  0.27937000  0.45543000  0.67846000  1
  C  C19  1  0.27018000  0.40806000  0.64468000  1
  C  C20  1  0.41397000  0.51257000  0.65720000  1
  C  C21  1  0.38820000  0.51160000  0.68300000  1
  C  C22  1  0.34023000  0.50000000  0.65977000  1
  C  C23  1  0.31277000  0.50000000  0.68723000  1
  C  C24  1  0.39106000  0.50000000  0.60894000  1
  C  C25  1  0.41827000  0.50000000  0.58173000  1
  C  C26  1  0.19210000  0.50000000  0.69210000  1
  C  C27  1  0.77697000  0.17606000  0.45543000  1
  C  C28  1  0.76338000  0.13788000  0.40806000  1
  C  C29  1  0.85537000  0.09860000  0.51257000  1
  C  C30  1  0.82860000  0.12340000  0.51160000  1
  C  C31  1  0.84023000  0.15977000  0.50000000  1
  C  C32  1  0.81277000  0.18723000  0.50000000  1
  C  C33  1  0.89106000  0.10894000  0.50000000  1
  C  C34  1  0.91827000  0.08173000  0.50000000  1
  C  C35  1  0.80790000  0.30790000  0.50000000  1
  C  C36  1  0.22303000  0.54457000  0.82394000  1
  C  C37  1  0.23662000  0.59194000  0.86212000  1
  C  C38  1  0.14463000  0.48743000  0.90140000  1
  C  C39  1  0.17140000  0.48840000  0.87660000  1
  C  C40  1  0.15977000  0.50000000  0.84023000  1
  C  C41  1  0.18723000  0.50000000  0.81277000  1
  C  C42  1  0.10894000  0.50000000  0.89106000  1
  C  C43  1  0.08173000  0.50000000  0.91827000  1
  C  C44  1  0.72063000  0.32154000  0.54457000  1
  C  C45  1  0.72982000  0.35532000  0.59194000  1
  C  C46  1  0.58603000  0.34280000  0.48743000  1
  C  C47  1  0.61180000  0.31700000  0.48840000  1
  C  C48  1  0.65977000  0.34023000  0.50000000  1
  C  C49  1  0.68723000  0.31277000  0.50000000  1
  C  C50  1  0.60894000  0.39106000  0.50000000  1
  C  C51  1  0.58173000  0.41827000  0.50000000  1
  C  C52  1  0.77697000  0.60091000  0.32154000  1
  C  C53  1  0.76338000  0.62550000  0.35532000  1
  C  C54  1  0.85537000  0.75677000  0.34280000  1
  C  C55  1  0.82860000  0.70520000  0.31700000  1
  C  C56  1  0.84023000  0.68046000  0.34023000  1
  C  C57  1  0.81277000  0.62554000  0.31277000  1
  C  C58  1  0.89106000  0.78212000  0.39106000  1
  C  C59  1  0.91827000  0.83654000  0.41827000  1
  C  C60  1  0.27937000  0.82394000  0.60091000  1
  C  C61  1  0.27018000  0.86212000  0.62550000  1
  C  C62  1  0.41397000  0.90140000  0.75677000  1
  C  C63  1  0.38820000  0.87660000  0.70520000  1
  C  C64  1  0.34023000  0.84023000  0.68046000  1
  C  C65  1  0.31277000  0.81277000  0.62554000  1
  C  C66  1  0.39106000  0.89106000  0.78212000  1
  C  C67  1  0.41827000  0.91827000  0.83654000  1
  C  C68  1  0.54457000  0.82394000  0.22303000  1
  C  C69  1  0.59194000  0.86212000  0.23662000  1
  C  C70  1  0.48743000  0.90140000  0.14463000  1
  C  C71  1  0.48840000  0.87660000  0.17140000  1
  C  C72  1  0.50000000  0.84023000  0.15977000  1
  C  C73  1  0.50000000  0.81277000  0.18723000  1
  C  C74  1  0.50000000  0.89106000  0.10894000  1
  C  C75  1  0.50000000  0.91827000  0.08173000  1
  C  C76  1  0.50000000  0.69210000  0.19210000  1
  C  C77  1  0.60091000  0.27937000  0.82394000  1
  C  C78  1  0.62550000  0.27018000  0.86212000  1
  C  C79  1  0.75677000  0.41397000  0.90140000  1
  C  C80  1  0.70520000  0.38820000  0.87660000  1
  C  C81  1  0.68046000  0.34023000  0.84023000  1
  C  C82  1  0.62554000  0.31277000  0.81277000  1
  C  C83  1  0.78212000  0.39106000  0.89106000  1
  C  C84  1  0.83654000  0.41827000  0.91827000  1
  C  C85  1  0.50000000  0.19210000  0.69210000  1
  C  C86  1  0.45543000  0.67846000  0.27937000  1
  C  C87  1  0.40806000  0.64468000  0.27018000  1
  C  C88  1  0.51257000  0.65720000  0.41397000  1
  C  C89  1  0.51160000  0.68300000  0.38820000  1
  C  C90  1  0.50000000  0.65977000  0.34023000  1
  C  C91  1  0.50000000  0.68723000  0.31277000  1
  C  C92  1  0.50000000  0.60894000  0.39106000  1
  C  C93  1  0.50000000  0.58173000  0.41827000  1
  C  C94  1  0.39909000  0.22303000  0.67846000  1
  C  C95  1  0.37450000  0.23662000  0.64468000  1
  C  C96  1  0.24323000  0.14463000  0.65720000  1
  C  C97  1  0.29480000  0.17140000  0.68300000  1
  C  C98  1  0.31954000  0.15977000  0.65977000  1
  C  C99  1  0.37446000  0.18723000  0.68723000  1
  C  C100  1  0.21788000  0.10894000  0.60894000  1
  C  C101  1  0.16346000  0.08173000  0.58173000  1
  C  C102  1  0.60091000  0.32154000  0.77697000  1
  C  C103  1  0.62550000  0.35532000  0.76338000  1
  C  C104  1  0.75677000  0.34280000  0.85537000  1
  C  C105  1  0.70520000  0.31700000  0.82860000  1
  C  C106  1  0.50000000  0.30790000  0.80790000  1
  C  C107  1  0.54457000  0.72063000  0.32154000  1
  C  C108  1  0.59194000  0.72982000  0.35532000  1
  C  C109  1  0.48743000  0.58603000  0.34280000  1
  C  C110  1  0.48840000  0.61180000  0.31700000  1
  C  C111  1  0.50000000  0.80790000  0.30790000  1
  C  C112  1  0.39909000  0.17606000  0.72063000  1
  C  C113  1  0.37450000  0.13788000  0.72982000  1
  C  C114  1  0.24323000  0.09860000  0.58603000  1
  C  C115  1  0.29480000  0.12340000  0.61180000  1
  C  C116  1  0.45543000  0.77697000  0.17606000  1
  C  C117  1  0.40806000  0.76338000  0.13788000  1
  C  C118  1  0.51257000  0.85537000  0.09860000  1
  C  C119  1  0.51160000  0.82860000  0.12340000  1
  C  C120  1  0.32154000  0.77697000  0.60091000  1
  C  C121  1  0.35532000  0.76338000  0.62550000  1
  C  C122  1  0.34280000  0.85537000  0.75677000  1
  C  C123  1  0.31700000  0.82860000  0.70520000  1
  C  C124  1  0.30790000  0.80790000  0.50000000  1
  C  C125  1  0.17606000  0.72063000  0.39909000  1
  C  C126  1  0.13788000  0.72982000  0.37450000  1
  C  C127  1  0.09860000  0.58603000  0.24323000  1
  C  C128  1  0.12340000  0.61180000  0.29480000  1
  C  C129  1  0.32154000  0.54457000  0.72063000  1
  C  C130  1  0.35532000  0.59194000  0.72982000  1
  C  C131  1  0.34280000  0.48743000  0.58603000  1
  C  C132  1  0.31700000  0.48840000  0.61180000  1
  C  C133  1  0.30790000  0.50000000  0.80790000  1
  C  C134  1  0.82394000  0.22303000  0.54457000  1
  C  C135  1  0.86212000  0.23662000  0.59194000  1
  C  C136  1  0.90140000  0.14463000  0.48743000  1
  C  C137  1  0.87660000  0.17140000  0.48840000  1
  C  C138  1  0.69210000  0.19210000  0.50000000  1
  C  C139  1  0.67846000  0.39909000  0.22303000  1
  C  C140  1  0.64468000  0.37450000  0.23662000  1
  C  C141  1  0.65720000  0.24323000  0.14463000  1
  C  C142  1  0.68300000  0.29480000  0.17140000  1
  C  C143  1  0.69210000  0.50000000  0.19210000  1
  C  C144  1  0.67846000  0.27937000  0.45543000  1
  C  C145  1  0.64468000  0.27018000  0.40806000  1
  C  C146  1  0.65720000  0.41397000  0.51257000  1
  C  C147  1  0.68300000  0.38820000  0.51160000  1
  C  C148  1  0.82394000  0.60091000  0.27937000  1
  C  C149  1  0.86212000  0.62550000  0.27018000  1
  C  C150  1  0.90140000  0.75677000  0.41397000  1
  C  C151  1  0.87660000  0.70520000  0.38820000  1
  C  C152  1  0.17606000  0.45543000  0.77697000  1
  C  C153  1  0.13788000  0.40806000  0.76338000  1
  C  C154  1  0.09860000  0.51257000  0.85537000  1
  C  C155  1  0.12340000  0.51160000  0.82860000  1
  C  C156  1  0.27937000  0.60091000  0.82394000  1
  C  C157  1  0.27018000  0.62550000  0.86212000  1
  C  C158  1  0.41397000  0.75677000  0.90140000  1
  C  C159  1  0.38820000  0.70520000  0.87660000  1
  C  C160  1  0.34023000  0.68046000  0.84023000  1
  C  C161  1  0.31277000  0.62554000  0.81277000  1
  C  C162  1  0.39106000  0.78212000  0.89106000  1
  C  C163  1  0.41827000  0.83654000  0.91827000  1
  C  C164  1  0.77697000  0.32154000  0.60091000  1
  C  C165  1  0.76338000  0.35532000  0.62550000  1
  C  C166  1  0.85537000  0.34280000  0.75677000  1
  C  C167  1  0.82860000  0.31700000  0.70520000  1
  C  C168  1  0.84023000  0.34023000  0.68046000  1
  C  C169  1  0.81277000  0.31277000  0.62554000  1
  C  C170  1  0.89106000  0.39106000  0.78212000  1
  C  C171  1  0.91827000  0.41827000  0.83654000  1
  C  C172  1  0.72063000  0.54457000  0.32154000  1
  C  C173  1  0.72982000  0.59194000  0.35532000  1
  C  C174  1  0.58603000  0.48743000  0.34280000  1
  C  C175  1  0.61180000  0.48840000  0.31700000  1
  C  C176  1  0.65977000  0.50000000  0.34023000  1
  C  C177  1  0.68723000  0.50000000  0.31277000  1
  C  C178  1  0.60894000  0.50000000  0.39106000  1
  C  C179  1  0.58173000  0.50000000  0.41827000  1
  C  C180  1  0.22303000  0.82394000  0.54457000  1
  C  C181  1  0.23662000  0.86212000  0.59194000  1
  C  C182  1  0.14463000  0.90140000  0.48743000  1
  C  C183  1  0.17140000  0.87660000  0.48840000  1
  C  C184  1  0.15977000  0.84023000  0.50000000  1
  C  C185  1  0.18723000  0.81277000  0.50000000  1
  C  C186  1  0.10894000  0.89106000  0.50000000  1
  C  C187  1  0.08173000  0.91827000  0.50000000  1
  C  C188  1  0.77697000  0.45543000  0.17606000  1
  C  C189  1  0.76338000  0.40806000  0.13788000  1
  C  C190  1  0.85537000  0.51257000  0.09860000  1
  C  C191  1  0.82860000  0.51160000  0.12340000  1
  C  C192  1  0.84023000  0.50000000  0.15977000  1
  C  C193  1  0.81277000  0.50000000  0.18723000  1
  C  C194  1  0.89106000  0.50000000  0.10894000  1
  C  C195  1  0.91827000  0.50000000  0.08173000  1
  C  C196  1  0.27937000  0.67846000  0.45543000  1
  C  C197  1  0.27018000  0.64468000  0.40806000  1
  C  C198  1  0.41397000  0.65720000  0.51257000  1
  C  C199  1  0.38820000  0.68300000  0.51160000  1
  C  C200  1  0.34023000  0.65977000  0.50000000  1
  C  C201  1  0.31277000  0.68723000  0.50000000  1
  C  C202  1  0.39106000  0.60894000  0.50000000  1
  C  C203  1  0.41827000  0.58173000  0.50000000  1
  C  C204  1  0.22303000  0.39909000  0.67846000  1
  C  C205  1  0.23662000  0.37450000  0.64468000  1
  C  C206  1  0.14463000  0.24323000  0.65720000  1
  C  C207  1  0.17140000  0.29480000  0.68300000  1
  C  C208  1  0.15977000  0.31954000  0.65977000  1
  C  C209  1  0.18723000  0.37446000  0.68723000  1
  C  C210  1  0.10894000  0.21788000  0.60894000  1
  C  C211  1  0.08173000  0.16346000  0.58173000  1
  C  C212  1  0.72063000  0.17606000  0.39909000  1
  C  C213  1  0.72982000  0.13788000  0.37450000  1
  C  C214  1  0.58603000  0.09860000  0.24323000  1
  C  C215  1  0.61180000  0.12340000  0.29480000  1
  C  C216  1  0.65977000  0.15977000  0.31954000  1
  C  C217  1  0.68723000  0.18723000  0.37446000  1
  C  C218  1  0.60894000  0.10894000  0.21788000  1
  C  C219  1  0.58173000  0.08173000  0.16346000  1
  C  C220  1  0.45543000  0.17606000  0.77697000  1
  C  C221  1  0.40806000  0.13788000  0.76338000  1
  C  C222  1  0.51257000  0.09860000  0.85537000  1
  C  C223  1  0.51160000  0.12340000  0.82860000  1
  C  C224  1  0.50000000  0.15977000  0.84023000  1
  C  C225  1  0.50000000  0.18723000  0.81277000  1
  C  C226  1  0.50000000  0.10894000  0.89106000  1
  C  C227  1  0.50000000  0.08173000  0.91827000  1
  C  C228  1  0.39909000  0.72063000  0.17606000  1
  C  C229  1  0.37450000  0.72982000  0.13788000  1
  C  C230  1  0.24323000  0.58603000  0.09860000  1
  C  C231  1  0.29480000  0.61180000  0.12340000  1
  C  C232  1  0.31954000  0.65977000  0.15977000  1
  C  C233  1  0.37446000  0.68723000  0.18723000  1
  C  C234  1  0.21788000  0.60894000  0.10894000  1
  C  C235  1  0.16346000  0.58173000  0.08173000  1
  C  C236  1  0.54457000  0.32154000  0.72063000  1
  C  C237  1  0.59194000  0.35532000  0.72982000  1
  C  C238  1  0.48743000  0.34280000  0.58603000  1
  C  C239  1  0.48840000  0.31700000  0.61180000  1
  C  C240  1  0.50000000  0.34023000  0.65977000  1
  C  C241  1  0.50000000  0.31277000  0.68723000  1
  C  C242  1  0.50000000  0.39106000  0.60894000  1
  C  C243  1  0.50000000  0.41827000  0.58173000  1
  C  C244  1  0.60091000  0.77697000  0.32154000  1
  C  C245  1  0.62550000  0.76338000  0.35532000  1
  C  C246  1  0.75677000  0.85537000  0.34280000  1
  C  C247  1  0.70520000  0.82860000  0.31700000  1
  C  C248  1  0.68046000  0.84023000  0.34023000  1
  C  C249  1  0.62554000  0.81277000  0.31277000  1
  C  C250  1  0.78212000  0.89106000  0.39106000  1
  C  C251  1  0.83654000  0.91827000  0.41827000  1
  C  C252  1  0.39909000  0.67846000  0.22303000  1
  C  C253  1  0.37450000  0.64468000  0.23662000  1
  C  C254  1  0.24323000  0.65720000  0.14463000  1
  C  C255  1  0.29480000  0.68300000  0.17140000  1
  C  C256  1  0.45543000  0.27937000  0.67846000  1
  C  C257  1  0.40806000  0.27018000  0.64468000  1
  C  C258  1  0.51257000  0.41397000  0.65720000  1
  C  C259  1  0.51160000  0.38820000  0.68300000  1
  C  C260  1  0.60091000  0.82394000  0.27937000  1
  C  C261  1  0.62550000  0.86212000  0.27018000  1
  C  C262  1  0.75677000  0.90140000  0.41397000  1
  C  C263  1  0.70520000  0.87660000  0.38820000  1
  C  C264  1  0.54457000  0.22303000  0.82394000  1
  C  C265  1  0.59194000  0.23662000  0.86212000  1
  C  C266  1  0.48743000  0.14463000  0.90140000  1
  C  C267  1  0.48840000  0.17140000  0.87660000  1
  C  C268  1  0.67846000  0.22303000  0.39909000  1
  C  C269  1  0.64468000  0.23662000  0.37450000  1
  C  C270  1  0.65720000  0.14463000  0.24323000  1
  C  C271  1  0.68300000  0.17140000  0.29480000  1
  C  C272  1  0.82394000  0.27937000  0.60091000  1
  C  C273  1  0.86212000  0.27018000  0.62550000  1
  C  C274  1  0.90140000  0.41397000  0.75677000  1
  C  C275  1  0.87660000  0.38820000  0.70520000  1
  C  C276  1  0.67846000  0.45543000  0.27937000  1
  C  C277  1  0.64468000  0.40806000  0.27018000  1
  C  C278  1  0.65720000  0.51257000  0.41397000  1
  C  C279  1  0.68300000  0.51160000  0.38820000  1
  C  C280  1  0.17606000  0.77697000  0.45543000  1
  C  C281  1  0.13788000  0.76338000  0.40806000  1
  C  C282  1  0.09860000  0.85537000  0.51257000  1
  C  C283  1  0.12340000  0.82860000  0.51160000  1
  C  C284  1  0.32154000  0.60091000  0.77697000  1
  C  C285  1  0.35532000  0.62550000  0.76338000  1
  C  C286  1  0.34280000  0.75677000  0.85537000  1
  C  C287  1  0.31700000  0.70520000  0.82860000  1
  C  C288  1  0.32154000  0.72063000  0.54457000  1
  C  C289  1  0.35532000  0.72982000  0.59194000  1
  C  C290  1  0.34280000  0.58603000  0.48743000  1
  C  C291  1  0.31700000  0.61180000  0.48840000  1
  C  C292  1  0.17606000  0.39909000  0.72063000  1
  C  C293  1  0.13788000  0.37450000  0.72982000  1
  C  C294  1  0.09860000  0.24323000  0.58603000  1
  C  C295  1  0.12340000  0.29480000  0.61180000  1
  C  C296  1  0.82394000  0.54457000  0.22303000  1
  C  C297  1  0.86212000  0.59194000  0.23662000  1
  C  C298  1  0.90140000  0.48743000  0.14463000  1
  C  C299  1  0.87660000  0.48840000  0.17140000  1
  Co  Co300  1  0.75000000  0.50000000  0.25000000  1
  Co  Co301  1  0.25000000  0.75000000  0.50000000  1
  Co  Co302  1  0.25000000  0.50000000  0.75000000  1
  Co  Co303  1  0.75000000  0.25000000  0.50000000  1
  Co  Co304  1  0.50000000  0.75000000  0.25000000  1
  Co  Co305  1  0.50000000  0.25000000  0.75000000  1
  H  H306  1  0.71400000  0.34000000  0.11680000  1
  H  H307  1  0.55230000  0.22580000  0.07430000  1
  H  H308  1  0.59610000  0.31230000  0.11500000  1
  H  H309  1  0.22320000  0.62600000  0.34000000  1
  H  H310  1  0.15150000  0.67350000  0.22580000  1
  H  H311  1  0.19730000  0.71620000  0.31230000  1
  H  H312  1  0.28600000  0.40280000  0.62600000  1
  H  H313  1  0.44770000  0.52200000  0.67350000  1
  H  H314  1  0.40390000  0.51890000  0.71620000  1
  H  H315  1  0.77680000  0.11680000  0.40280000  1
  H  H316  1  0.84850000  0.07430000  0.52200000  1
  H  H317  1  0.80270000  0.11500000  0.51890000  1
  H  H318  1  0.22320000  0.59720000  0.88320000  1
  H  H319  1  0.15150000  0.47800000  0.92570000  1
  H  H320  1  0.19730000  0.48110000  0.88500000  1
  H  H321  1  0.71400000  0.37400000  0.59720000  1
  H  H322  1  0.55230000  0.32650000  0.47800000  1
  H  H323  1  0.59610000  0.28380000  0.48110000  1
  H  H324  1  0.77680000  0.66000000  0.37400000  1
  H  H325  1  0.84850000  0.77420000  0.32650000  1
  H  H326  1  0.80270000  0.68770000  0.28380000  1
  H  H327  1  0.28600000  0.88320000  0.66000000  1
  H  H328  1  0.44770000  0.92570000  0.77420000  1
  H  H329  1  0.40390000  0.88500000  0.68770000  1
  H  H330  1  0.59720000  0.88320000  0.22320000  1
  H  H331  1  0.47800000  0.92570000  0.15150000  1
  H  H332  1  0.48110000  0.88500000  0.19730000  1
  H  H333  1  0.66000000  0.28600000  0.88320000  1
  H  H334  1  0.77420000  0.44770000  0.92570000  1
  H  H335  1  0.68770000  0.40390000  0.88500000  1
  H  H336  1  0.40280000  0.62600000  0.28600000  1
  H  H337  1  0.52200000  0.67350000  0.44770000  1
  H  H338  1  0.51890000  0.71620000  0.40390000  1
  H  H339  1  0.34000000  0.22320000  0.62600000  1
  H  H340  1  0.22580000  0.15150000  0.67350000  1
  H  H341  1  0.31230000  0.19730000  0.71620000  1
  H  H342  1  0.66000000  0.37400000  0.77680000  1
  H  H343  1  0.77420000  0.32650000  0.84850000  1
  H  H344  1  0.68770000  0.28380000  0.80270000  1
  H  H345  1  0.59720000  0.71400000  0.37400000  1
  H  H346  1  0.47800000  0.55230000  0.32650000  1
  H  H347  1  0.48110000  0.59610000  0.28380000  1
  H  H348  1  0.34000000  0.11680000  0.71400000  1
  H  H349  1  0.22580000  0.07430000  0.55230000  1
  H  H350  1  0.31230000  0.11500000  0.59610000  1
  H  H351  1  0.40280000  0.77680000  0.11680000  1
  H  H352  1  0.52200000  0.84850000  0.07430000  1
  H  H353  1  0.51890000  0.80270000  0.11500000  1
  H  H354  1  0.37400000  0.77680000  0.66000000  1
  H  H355  1  0.32650000  0.84850000  0.77420000  1
  H  H356  1  0.28380000  0.80270000  0.68770000  1
  H  H357  1  0.11680000  0.71400000  0.34000000  1
  H  H358  1  0.07430000  0.55230000  0.22580000  1
  H  H359  1  0.11500000  0.59610000  0.31230000  1
  H  H360  1  0.37400000  0.59720000  0.71400000  1
  H  H361  1  0.32650000  0.47800000  0.55230000  1
  H  H362  1  0.28380000  0.48110000  0.59610000  1
  H  H363  1  0.88320000  0.22320000  0.59720000  1
  H  H364  1  0.92570000  0.15150000  0.47800000  1
  H  H365  1  0.88500000  0.19730000  0.48110000  1
  H  H366  1  0.62600000  0.34000000  0.22320000  1
  H  H367  1  0.67350000  0.22580000  0.15150000  1
  H  H368  1  0.71620000  0.31230000  0.19730000  1
  H  H369  1  0.62600000  0.28600000  0.40280000  1
  H  H370  1  0.67350000  0.44770000  0.52200000  1
  H  H371  1  0.71620000  0.40390000  0.51890000  1
  H  H372  1  0.88320000  0.66000000  0.28600000  1
  H  H373  1  0.92570000  0.77420000  0.44770000  1
  H  H374  1  0.88500000  0.68770000  0.40390000  1
  H  H375  1  0.11680000  0.40280000  0.77680000  1
  H  H376  1  0.07430000  0.52200000  0.84850000  1
  H  H377  1  0.11500000  0.51890000  0.80270000  1
  H  H378  1  0.28600000  0.66000000  0.88320000  1
  H  H379  1  0.44770000  0.77420000  0.92570000  1
  H  H380  1  0.40390000  0.68770000  0.88500000  1
  H  H381  1  0.77680000  0.37400000  0.66000000  1
  H  H382  1  0.84850000  0.32650000  0.77420000  1
  H  H383  1  0.80270000  0.28380000  0.68770000  1
  H  H384  1  0.71400000  0.59720000  0.37400000  1
  H  H385  1  0.55230000  0.47800000  0.32650000  1
  H  H386  1  0.59610000  0.48110000  0.28380000  1
  H  H387  1  0.22320000  0.88320000  0.59720000  1
  H  H388  1  0.15150000  0.92570000  0.47800000  1
  H  H389  1  0.19730000  0.88500000  0.48110000  1
  H  H390  1  0.77680000  0.40280000  0.11680000  1
  H  H391  1  0.84850000  0.52200000  0.07430000  1
  H  H392  1  0.80270000  0.51890000  0.11500000  1
  H  H393  1  0.28600000  0.62600000  0.40280000  1
  H  H394  1  0.44770000  0.67350000  0.52200000  1
  H  H395  1  0.40390000  0.71620000  0.51890000  1
  H  H396  1  0.22320000  0.34000000  0.62600000  1
  H  H397  1  0.15150000  0.22580000  0.67350000  1
  H  H398  1  0.19730000  0.31230000  0.71620000  1
  H  H399  1  0.71400000  0.11680000  0.34000000  1
  H  H400  1  0.55230000  0.07430000  0.22580000  1
  H  H401  1  0.59610000  0.11500000  0.31230000  1
  H  H402  1  0.40280000  0.11680000  0.77680000  1
  H  H403  1  0.52200000  0.07430000  0.84850000  1
  H  H404  1  0.51890000  0.11500000  0.80270000  1
  H  H405  1  0.34000000  0.71400000  0.11680000  1
  H  H406  1  0.22580000  0.55230000  0.07430000  1
  H  H407  1  0.31230000  0.59610000  0.11500000  1
  H  H408  1  0.59720000  0.37400000  0.71400000  1
  H  H409  1  0.47800000  0.32650000  0.55230000  1
  H  H410  1  0.48110000  0.28380000  0.59610000  1
  H  H411  1  0.66000000  0.77680000  0.37400000  1
  H  H412  1  0.77420000  0.84850000  0.32650000  1
  H  H413  1  0.68770000  0.80270000  0.28380000  1
  H  H414  1  0.34000000  0.62600000  0.22320000  1
  H  H415  1  0.22580000  0.67350000  0.15150000  1
  H  H416  1  0.31230000  0.71620000  0.19730000  1
  H  H417  1  0.40280000  0.28600000  0.62600000  1
  H  H418  1  0.52200000  0.44770000  0.67350000  1
  H  H419  1  0.51890000  0.40390000  0.71620000  1
  H  H420  1  0.66000000  0.88320000  0.28600000  1
  H  H421  1  0.77420000  0.92570000  0.44770000  1
  H  H422  1  0.68770000  0.88500000  0.40390000  1
  H  H423  1  0.59720000  0.22320000  0.88320000  1
  H  H424  1  0.47800000  0.15150000  0.92570000  1
  H  H425  1  0.48110000  0.19730000  0.88500000  1
  H  H426  1  0.62600000  0.22320000  0.34000000  1
  H  H427  1  0.67350000  0.15150000  0.22580000  1
  H  H428  1  0.71620000  0.19730000  0.31230000  1
  H  H429  1  0.88320000  0.28600000  0.66000000  1
  H  H430  1  0.92570000  0.44770000  0.77420000  1
  H  H431  1  0.88500000  0.40390000  0.68770000  1
  H  H432  1  0.62600000  0.40280000  0.28600000  1
  H  H433  1  0.67350000  0.52200000  0.44770000  1
  H  H434  1  0.71620000  0.51890000  0.40390000  1
  H  H435  1  0.11680000  0.77680000  0.40280000  1
  H  H436  1  0.07430000  0.84850000  0.52200000  1
  H  H437  1  0.11500000  0.80270000  0.51890000  1
  H  H438  1  0.37400000  0.66000000  0.77680000  1
  H  H439  1  0.32650000  0.77420000  0.84850000  1
  H  H440  1  0.28380000  0.68770000  0.80270000  1
  H  H441  1  0.37400000  0.71400000  0.59720000  1
  H  H442  1  0.32650000  0.55230000  0.47800000  1
  H  H443  1  0.28380000  0.59610000  0.48110000  1
  H  H444  1  0.11680000  0.34000000  0.71400000  1
  H  H445  1  0.07430000  0.22580000  0.55230000  1
  H  H446  1  0.11500000  0.31230000  0.59610000  1
  H  H447  1  0.88320000  0.59720000  0.22320000  1
  H  H448  1  0.92570000  0.47800000  0.15150000  1
  H  H449  1  0.88500000  0.48110000  0.19730000  1
  N  N450  1  0.74950000  0.44882000  0.19832000  1
  N  N451  1  0.25050000  0.69932000  0.44882000  1
  N  N452  1  0.25050000  0.44882000  0.69932000  1
  N  N453  1  0.74950000  0.19832000  0.44882000  1
  N  N454  1  0.25050000  0.55118000  0.80168000  1
  N  N455  1  0.74950000  0.30068000  0.55118000  1
  N  N456  1  0.74950000  0.55118000  0.30068000  1
  N  N457  1  0.25050000  0.80168000  0.55118000  1
  N  N458  1  0.55118000  0.80168000  0.25050000  1
  N  N459  1  0.55118000  0.25050000  0.80168000  1
  N  N460  1  0.44882000  0.69932000  0.25050000  1
  N  N461  1  0.44882000  0.25050000  0.69932000  1
  N  N462  1  0.55118000  0.30068000  0.74950000  1
  N  N463  1  0.55118000  0.74950000  0.30068000  1
  N  N464  1  0.44882000  0.19832000  0.74950000  1
  N  N465  1  0.44882000  0.74950000  0.19832000  1
  N  N466  1  0.30068000  0.74950000  0.55118000  1
  N  N467  1  0.19832000  0.74950000  0.44882000  1
  N  N468  1  0.30068000  0.55118000  0.74950000  1
  N  N469  1  0.80168000  0.25050000  0.55118000  1
  N  N470  1  0.69932000  0.44882000  0.25050000  1
  N  N471  1  0.69932000  0.25050000  0.44882000  1
  N  N472  1  0.80168000  0.55118000  0.25050000  1
  N  N473  1  0.19832000  0.44882000  0.74950000  1
  O  O474  1  0.60461000  0.14264000  0.09183000  1
  O  O475  1  0.83890000  0.50000000  0.33890000  1
  O  O476  1  0.52080000  0.05970000  0.05970000  1
  O  O477  1  0.56412000  0.00000000  1.00000000  1
  O  O478  1  0.05081000  0.53803000  0.14264000  1
  O  O479  1  0.16110000  0.66110000  0.50000000  1
  O  O480  1  0.00000000  0.53890000  0.05970000  1
  O  O481  1  0.00000000  0.43588000  0.00000000  1
  O  O482  1  0.39539000  0.48722000  0.53803000  1
  O  O483  1  0.16110000  0.50000000  0.66110000  1
  O  O484  1  0.47920000  0.53890000  0.53890000  1
  O  O485  1  0.43588000  0.43588000  0.43588000  1
  O  O486  1  0.94919000  0.09183000  0.48722000  1
  O  O487  1  0.83890000  0.33890000  0.50000000  1
  O  O488  1  0.00000000  0.05970000  0.53890000  1
  O  O489  1  0.00000000  0.00000000  0.43588000  1
  O  O490  1  0.05081000  0.51278000  0.90817000  1
  O  O491  1  0.00000000  0.46110000  0.94030000  1
  O  O492  1  0.00000000  0.56412000  0.00000000  1
  O  O493  1  0.60461000  0.46197000  0.51278000  1
  O  O494  1  0.52080000  0.46110000  0.46110000  1
  O  O495  1  0.56412000  0.56412000  0.56412000  1
  O  O496  1  0.94919000  0.85736000  0.46197000  1
  O  O497  1  0.00000000  0.94030000  0.46110000  1
  O  O498  1  0.00000000  0.00000000  0.56412000  1
  O  O499  1  0.39539000  0.90817000  0.85736000  1
  O  O500  1  0.47920000  0.94030000  0.94030000  1
  O  O501  1  0.43588000  0.00000000  1.00000000  1
  O  O502  1  0.51278000  0.90817000  0.05081000  1
  O  O503  1  0.50000000  0.66110000  0.16110000  1
  O  O504  1  0.46110000  0.94030000  0.00000000  1
  O  O505  1  0.85736000  0.39539000  0.90817000  1
  O  O506  1  0.50000000  0.16110000  0.66110000  1
  O  O507  1  0.94030000  0.47920000  0.94030000  1
  O  O508  1  0.48722000  0.53803000  0.39539000  1
  O  O509  1  0.53890000  0.53890000  0.47920000  1
  O  O510  1  0.14264000  0.05081000  0.53803000  1
  O  O511  1  0.05970000  0.00000000  0.53890000  1
  O  O512  1  0.85736000  0.46197000  0.94919000  1
  O  O513  1  0.50000000  0.33890000  0.83890000  1
  O  O514  1  0.94030000  0.46110000  0.00000000  1
  O  O515  1  0.51278000  0.60461000  0.46197000  1
  O  O516  1  0.50000000  0.83890000  0.33890000  1
  O  O517  1  0.46110000  0.52080000  0.46110000  1
  O  O518  1  0.14264000  0.09183000  0.60461000  1
  O  O519  1  0.05970000  0.05970000  0.52080000  1
  O  O520  1  0.48722000  0.94919000  0.09183000  1
  O  O521  1  0.53890000  0.00000000  0.05970000  1
  O  O522  1  0.46197000  0.94919000  0.85736000  1
  O  O523  1  0.33890000  0.83890000  0.50000000  1
  O  O524  1  0.46110000  0.00000000  0.94030000  1
  O  O525  1  0.09183000  0.60461000  0.14264000  1
  O  O526  1  0.05970000  0.52080000  0.05970000  1
  O  O527  1  0.46197000  0.51278000  0.60461000  1
  O  O528  1  0.33890000  0.50000000  0.83890000  1
  O  O529  1  0.46110000  0.46110000  0.52080000  1
  O  O530  1  0.90817000  0.05081000  0.51278000  1
  O  O531  1  0.66110000  0.16110000  0.50000000  1
  O  O532  1  0.94030000  0.00000000  0.46110000  1
  O  O533  1  0.53803000  0.14264000  0.05081000  1
  O  O534  1  0.66110000  0.50000000  0.16110000  1
  O  O535  1  0.53890000  0.05970000  1.00000000  1
  O  O536  1  0.53803000  0.39539000  0.48722000  1
  O  O537  1  0.53890000  0.47920000  0.53890000  1
  O  O538  1  0.90817000  0.85736000  0.39539000  1
  O  O539  1  0.94030000  0.94030000  0.47920000  1
  O  O540  1  0.09183000  0.48722000  0.94919000  1
  O  O541  1  0.05970000  0.53890000  0.00000000  1
  O  O542  1  0.39539000  0.85736000  0.90817000  1
  O  O543  1  0.94919000  0.46197000  0.85736000  1
  O  O544  1  0.60461000  0.51278000  0.46197000  1
  O  O545  1  0.05081000  0.90817000  0.51278000  1
  O  O546  1  0.94919000  0.48722000  0.09183000  1
  O  O547  1  0.39539000  0.53803000  0.48722000  1
  O  O548  1  0.05081000  0.14264000  0.53803000  1
  O  O549  1  0.60461000  0.09183000  0.14264000  1
  O  O550  1  0.48722000  0.09183000  0.94919000  1
  O  O551  1  0.14264000  0.60461000  0.09183000  1
  O  O552  1  0.51278000  0.46197000  0.60461000  1
  O  O553  1  0.85736000  0.94919000  0.46197000  1
  O  O554  1  0.14264000  0.53803000  0.05081000  1
  O  O555  1  0.48722000  0.39539000  0.53803000  1
  O  O556  1  0.85736000  0.90817000  0.39539000  1
  O  O557  1  0.51278000  0.05081000  0.90817000  1
  O  O558  1  0.53803000  0.05081000  0.14264000  1
  O  O559  1  0.90817000  0.39539000  0.85736000  1
  O  O560  1  0.53803000  0.48722000  0.39539000  1
  O  O561  1  0.09183000  0.94919000  0.48722000  1
  O  O562  1  0.46197000  0.85736000  0.94919000  1
  O  O563  1  0.46197000  0.60461000  0.51278000  1
  O  O564  1  0.09183000  0.14264000  0.60461000  1
  O  O565  1  0.90817000  0.51278000  0.05081000  1
  Zr  Zr566  1  0.57070000  0.06310000  0.06310000  1
  Zr  Zr567  1  0.59922000  0.06581000  0.06581000  1
  Zr  Zr568  1  0.00000000  0.49240000  0.06310000  1
  Zr  Zr569  1  0.00000000  0.46659000  0.06581000  1
  Zr  Zr570  1  0.42930000  0.49240000  0.49240000  1
  Zr  Zr571  1  0.40078000  0.46659000  0.46659000  1
  Zr  Zr572  1  0.00000000  0.06310000  0.49240000  1
  Zr  Zr573  1  0.00000000  0.06581000  0.46659000  1
  Zr  Zr574  1  0.00000000  0.50760000  0.93690000  1
  Zr  Zr575  1  0.00000000  0.53341000  0.93419000  1
  Zr  Zr576  1  0.57070000  0.50760000  0.50760000  1
  Zr  Zr577  1  0.59922000  0.53341000  0.53341000  1
  Zr  Zr578  1  0.00000000  0.93690000  0.50760000  1
  Zr  Zr579  1  0.00000000  0.93419000  0.53341000  1
  Zr  Zr580  1  0.42930000  0.93690000  0.93690000  1
  Zr  Zr581  1  0.40078000  0.93419000  0.93419000  1
  Zr  Zr582  1  0.50760000  0.93690000  1.00000000  1
  Zr  Zr583  1  0.53341000  0.93419000  1.00000000  1
  Zr  Zr584  1  0.93690000  0.42930000  0.93690000  1
  Zr  Zr585  1  0.93419000  0.40078000  0.93419000  1
  Zr  Zr586  1  0.49240000  0.49240000  0.42930000  1
  Zr  Zr587  1  0.46659000  0.46659000  0.40078000  1
  Zr  Zr588  1  0.06310000  0.00000000  0.49240000  1
  Zr  Zr589  1  0.06581000  0.00000000  0.46659000  1
  Zr  Zr590  1  0.93690000  0.50760000  1.00000000  1
  Zr  Zr591  1  0.93419000  0.53341000  1.00000000  1
  Zr  Zr592  1  0.50760000  0.57070000  0.50760000  1
  Zr  Zr593  1  0.53341000  0.59922000  0.53341000  1
  Zr  Zr594  1  0.06310000  0.06310000  0.57070000  1
  Zr  Zr595  1  0.06581000  0.06581000  0.59922000  1
  Zr  Zr596  1  0.49240000  0.00000000  0.06310000  1
  Zr  Zr597  1  0.46659000  0.00000000  0.06581000  1
  Zr  Zr598  1  0.50760000  0.00000000  0.93690000  1
  Zr  Zr599  1  0.53341000  0.00000000  0.93419000  1
  Zr  Zr600  1  0.06310000  0.57070000  0.06310000  1
  Zr  Zr601  1  0.06581000  0.59922000  0.06581000  1
  Zr  Zr602  1  0.50760000  0.50760000  0.57070000  1
  Zr  Zr603  1  0.53341000  0.53341000  0.59922000  1
  Zr  Zr604  1  0.93690000  0.00000000  0.50760000  1
  Zr  Zr605  1  0.93419000  0.00000000  0.53341000  1
  Zr  Zr606  1  0.49240000  0.06310000  1.00000000  1
  Zr  Zr607  1  0.46659000  0.06581000  1.00000000  1
  Zr  Zr608  1  0.49240000  0.42930000  0.49240000  1
  Zr  Zr609  1  0.46659000  0.40078000  0.46659000  1
  Zr  Zr610  1  0.93690000  0.93690000  0.42930000  1
  Zr  Zr611  1  0.93419000  0.93419000  0.40078000  1
  Zr  Zr612  1  0.06310000  0.49240000  0.00000000  1
  Zr  Zr613  1  0.06581000  0.46659000  0.00000000  1
