# generated using pymatgen
data_Zr6H73C101N3O32
_symmetry_space_group_name_H-M   'P 1'
_cell_length_a   18.77380000
_cell_length_b   23.08420000
_cell_length_c   23.08420000
_cell_angle_alpha   90.00000000
_cell_angle_beta   90.00000000
_cell_angle_gamma   90.00000000
_symmetry_Int_Tables_number   1
_chemical_formula_structural   Zr6H73C101N3O32
_chemical_formula_sum   'Zr12 H146 C202 N6 O64'
_cell_volume   10004.18798164
_cell_formula_units_Z   2
loop_
 _symmetry_equiv_pos_site_id
 _symmetry_equiv_pos_as_xyz
  1  'x, y, z'
loop_
 _atom_site_type_symbol
 _atom_site_label
 _atom_site_symmetry_multiplicity
 _atom_site_fract_x
 _atom_site_fract_y
 _atom_site_fract_z
 _atom_site_occupancy
  Zr  Zr0  1  0.00000000  0.39199000  0.00000000  1
  Zr  Zr1  1  1.00000000  0.60801000  0.00000000  1
  Zr  Zr2  1  0.50000000  0.00000000  0.39199000  1
  Zr  Zr3  1  0.50000000  0.00000000  0.60801000  1
  Zr  Zr4  1  0.09260000  0.50000000  0.07559000  1
  Zr  Zr5  1  0.09260000  0.50000000  0.92441000  1
  Zr  Zr6  1  0.59260000  0.92441000  0.50000000  1
  Zr  Zr7  1  0.59260000  0.07559000  0.50000000  1
  Zr  Zr8  1  0.90740000  0.50000000  0.07559000  1
  Zr  Zr9  1  0.90740000  0.50000000  0.92441000  1
  Zr  Zr10  1  0.40740000  0.07559000  0.50000000  1
  Zr  Zr11  1  0.40740000  0.92441000  0.50000000  1
  H  H12  1  0.22910000  0.37650000  0.16510000  1
  H  H13  1  0.10090000  0.24910000  0.10550000  1
  H  H14  1  0.28960000  0.30950000  0.22290000  1
  H  H15  1  0.10940000  0.15630000  0.13410000  1
  H  H16  1  0.18830000  0.13410000  0.14800000  1
  H  H17  1  0.13370000  0.14660000  0.19980000  1
  H  H18  1  0.22910000  0.62350000  0.83490000  1
  H  H19  1  0.10090000  0.75090000  0.89450000  1
  H  H20  1  0.28960000  0.69050000  0.77710000  1
  H  H21  1  0.10940000  0.84370000  0.86590000  1
  H  H22  1  0.18830000  0.86590000  0.85200000  1
  H  H23  1  0.13370000  0.85340000  0.80020000  1
  H  H24  1  0.04890000  0.39540000  0.56370000  1
  H  H25  1  0.72910000  0.83490000  0.37650000  1
  H  H26  1  0.60090000  0.89450000  0.24910000  1
  H  H27  1  0.78960000  0.77710000  0.30950000  1
  H  H28  1  0.60940000  0.86590000  0.15630000  1
  H  H29  1  0.68830000  0.85200000  0.13410000  1
  H  H30  1  0.63370000  0.80020000  0.14660000  1
  H  H31  1  0.48600000  0.60350000  0.58160000  1
  H  H32  1  0.72910000  0.16510000  0.62350000  1
  H  H33  1  0.60090000  0.10550000  0.75090000  1
  H  H34  1  0.66100000  0.16390000  0.81850000  1
  H  H35  1  0.81550000  0.22830000  0.63700000  1
  H  H36  1  0.80150000  0.27630000  0.68570000  1
  H  H37  1  0.85600000  0.22440000  0.69790000  1
  H  H38  1  0.77090000  0.62350000  0.16510000  1
  H  H39  1  0.89910000  0.75090000  0.10550000  1
  H  H40  1  0.83900000  0.81850000  0.16390000  1
  H  H41  1  0.68450000  0.63700000  0.22830000  1
  H  H42  1  0.69850000  0.68570000  0.27630000  1
  H  H43  1  0.64400000  0.69790000  0.22440000  1
  H  H44  1  0.77090000  0.37650000  0.83490000  1
  H  H45  1  0.89910000  0.24910000  0.89450000  1
  H  H46  1  0.71040000  0.30950000  0.77710000  1
  H  H47  1  0.89060000  0.15630000  0.86590000  1
  H  H48  1  0.81170000  0.13410000  0.85200000  1
  H  H49  1  0.86630000  0.14660000  0.80020000  1
  H  H50  1  0.27090000  0.16510000  0.37650000  1
  H  H51  1  0.39910000  0.10550000  0.24910000  1
  H  H52  1  0.33900000  0.16390000  0.18150000  1
  H  H53  1  0.18450000  0.22830000  0.36300000  1
  H  H54  1  0.19850000  0.27630000  0.31430000  1
  H  H55  1  0.14400000  0.22440000  0.30210000  1
  H  H56  1  0.27090000  0.83490000  0.62350000  1
  H  H57  1  0.39910000  0.89450000  0.75090000  1
  H  H58  1  0.33900000  0.83610000  0.81850000  1
  H  H59  1  0.18450000  0.77170000  0.63700000  1
  H  H60  1  0.19850000  0.72370000  0.68570000  1
  H  H61  1  0.14400000  0.77560000  0.69790000  1
  H  H62  1  0.77090000  0.62350000  0.83490000  1
  H  H63  1  0.89910000  0.75090000  0.89450000  1
  H  H64  1  0.83900000  0.81850000  0.83610000  1
  H  H65  1  0.68450000  0.63700000  0.77170000  1
  H  H66  1  0.69850000  0.68570000  0.72370000  1
  H  H67  1  0.64400000  0.69790000  0.77560000  1
  H  H68  1  0.67660000  0.45270000  0.92590000  1
  H  H69  1  0.57420000  0.42420000  0.88130000  1
  H  H70  1  0.50920000  0.46860000  0.88660000  1
  H  H71  1  0.50920000  0.41020000  0.92390000  1
  H  H72  1  0.77090000  0.37650000  0.16510000  1
  H  H73  1  0.89910000  0.24910000  0.10550000  1
  H  H74  1  0.83900000  0.18150000  0.16390000  1
  H  H75  1  0.68450000  0.36300000  0.22830000  1
  H  H76  1  0.69850000  0.31430000  0.27630000  1
  H  H77  1  0.64400000  0.30210000  0.22440000  1
  H  H78  1  0.67660000  0.54730000  0.07410000  1
  H  H79  1  0.55150000  0.54730000  0.07410000  1
  H  H80  1  0.27090000  0.16510000  0.62350000  1
  H  H81  1  0.39910000  0.10550000  0.75090000  1
  H  H82  1  0.33900000  0.16390000  0.81850000  1
  H  H83  1  0.18450000  0.22830000  0.63700000  1
  H  H84  1  0.19850000  0.27630000  0.68570000  1
  H  H85  1  0.14400000  0.22440000  0.69790000  1
  H  H86  1  0.17660000  0.07410000  0.45270000  1
  H  H87  1  0.05150000  0.07410000  0.45270000  1
  H  H88  1  0.27090000  0.83490000  0.37650000  1
  H  H89  1  0.39910000  0.89450000  0.24910000  1
  H  H90  1  0.33900000  0.83610000  0.18150000  1
  H  H91  1  0.18450000  0.77170000  0.36300000  1
  H  H92  1  0.19850000  0.72370000  0.31430000  1
  H  H93  1  0.14400000  0.77560000  0.30210000  1
  H  H94  1  0.17660000  0.92590000  0.54730000  1
  H  H95  1  0.07420000  0.88130000  0.57580000  1
  H  H96  1  0.00920000  0.88660000  0.53140000  1
  H  H97  1  0.00920000  0.92390000  0.58980000  1
  H  H98  1  0.22910000  0.37650000  0.83490000  1
  H  H99  1  0.10090000  0.24910000  0.89450000  1
  H  H100  1  0.32340000  0.54730000  0.92590000  1
  H  H101  1  0.28960000  0.30950000  0.77710000  1
  H  H102  1  0.44850000  0.54730000  0.92590000  1
  H  H103  1  0.10940000  0.15630000  0.86590000  1
  H  H104  1  0.18830000  0.13410000  0.85200000  1
  H  H105  1  0.13370000  0.14660000  0.80020000  1
  H  H106  1  0.22910000  0.62350000  0.16510000  1
  H  H107  1  0.10090000  0.75090000  0.10550000  1
  H  H108  1  0.32340000  0.45270000  0.07410000  1
  H  H109  1  0.42580000  0.42420000  0.11870000  1
  H  H110  1  0.28960000  0.69050000  0.22290000  1
  H  H111  1  0.10940000  0.84370000  0.13410000  1
  H  H112  1  0.18830000  0.86590000  0.14800000  1
  H  H113  1  0.13370000  0.85340000  0.19980000  1
  H  H114  1  0.49080000  0.46860000  0.11340000  1
  H  H115  1  0.49080000  0.41020000  0.07610000  1
  H  H116  1  0.72910000  0.83490000  0.62350000  1
  H  H117  1  0.60090000  0.89450000  0.75090000  1
  H  H118  1  0.82340000  0.92590000  0.45270000  1
  H  H119  1  0.78960000  0.77710000  0.69050000  1
  H  H120  1  0.94850000  0.92590000  0.45270000  1
  H  H121  1  0.60940000  0.86590000  0.84370000  1
  H  H122  1  0.68830000  0.85200000  0.86590000  1
  H  H123  1  0.63370000  0.80020000  0.85340000  1
  H  H124  1  0.72910000  0.16510000  0.37650000  1
  H  H125  1  0.60090000  0.10550000  0.24910000  1
  H  H126  1  0.82340000  0.07410000  0.54730000  1
  H  H127  1  0.92580000  0.11870000  0.57580000  1
  H  H128  1  0.78960000  0.22290000  0.30950000  1
  H  H129  1  0.60940000  0.13410000  0.15630000  1
  H  H130  1  0.68830000  0.14800000  0.13410000  1
  H  H131  1  0.63370000  0.19980000  0.14660000  1
  H  H132  1  0.99080000  0.11340000  0.53140000  1
  H  H133  1  0.99080000  0.07610000  0.58980000  1
  H  H134  1  0.10790000  0.50000000  0.26410000  1
  H  H135  1  0.10810000  0.50000000  0.36610000  1
  H  H136  1  0.10790000  0.50000000  0.73590000  1
  H  H137  1  0.10810000  0.50000000  0.63390000  1
  H  H138  1  0.60790000  0.73590000  0.50000000  1
  H  H139  1  0.60810000  0.63390000  0.50000000  1
  H  H140  1  0.60790000  0.26410000  0.50000000  1
  H  H141  1  0.60810000  0.36610000  0.50000000  1
  H  H142  1  0.89210000  0.50000000  0.26410000  1
  H  H143  1  0.89190000  0.50000000  0.36610000  1
  H  H144  1  0.89210000  0.50000000  0.73590000  1
  H  H145  1  0.89190000  0.50000000  0.63390000  1
  H  H146  1  0.39210000  0.26410000  0.50000000  1
  H  H147  1  0.39190000  0.36610000  0.50000000  1
  H  H148  1  0.39210000  0.73590000  0.50000000  1
  H  H149  1  0.39190000  0.63390000  0.50000000  1
  H  H150  1  1.00000000  0.60800000  0.55060000  1
  H  H151  1  0.50000000  0.55060000  0.39200000  1
  H  H152  1  0.00000000  0.43210000  0.44930000  1
  H  H153  1  0.00000000  0.60800000  0.44940000  1
  H  H154  1  0.00000000  0.37860000  0.60480000  1
  H  H155  1  0.50000000  0.44930000  0.56790000  1
  H  H156  1  0.50000000  0.44940000  0.39200000  1
  H  H157  1  0.50000000  0.60480000  0.62140000  1
  C  C158  1  0.23110000  0.23940000  0.19880000  1
  C  C159  1  0.25110000  0.29710000  0.19910000  1
  C  C160  1  0.21520000  0.33700000  0.16480000  1
  C  C161  1  0.15900000  0.31890000  0.13020000  1
  C  C162  1  0.13910000  0.26130000  0.12950000  1
  C  C163  1  0.17490000  0.22100000  0.16410000  1
  C  C164  1  0.11910000  0.36360000  0.09590000  1
  C  C165  1  0.14930000  0.15910000  0.16120000  1
  C  C166  1  0.23110000  0.76060000  0.80120000  1
  C  C167  1  0.25110000  0.70290000  0.80090000  1
  C  C168  1  0.21520000  0.66300000  0.83520000  1
  C  C169  1  0.15900000  0.68110000  0.86980000  1
  C  C170  1  0.13910000  0.73870000  0.87050000  1
  C  C171  1  0.17490000  0.77900000  0.83590000  1
  C  C172  1  0.11910000  0.63640000  0.90410000  1
  C  C173  1  0.14930000  0.84090000  0.83880000  1
  C  C174  1  0.73110000  0.80120000  0.23940000  1
  C  C175  1  0.75110000  0.80090000  0.29710000  1
  C  C176  1  0.71520000  0.83520000  0.33700000  1
  C  C177  1  0.65900000  0.86980000  0.31890000  1
  C  C178  1  0.63910000  0.87050000  0.26130000  1
  C  C179  1  0.67490000  0.83590000  0.22100000  1
  C  C180  1  0.61910000  0.90410000  0.36360000  1
  C  C181  1  0.64930000  0.83880000  0.15910000  1
  C  C182  1  0.73110000  0.19880000  0.76060000  1
  C  C183  1  0.75110000  0.19910000  0.70290000  1
  C  C184  1  0.71520000  0.16480000  0.66300000  1
  C  C185  1  0.65900000  0.13020000  0.68110000  1
  C  C186  1  0.63910000  0.12950000  0.73870000  1
  C  C187  1  0.67490000  0.16410000  0.77900000  1
  C  C188  1  0.61910000  0.09590000  0.63640000  1
  C  C189  1  0.81130000  0.23520000  0.67870000  1
  C  C190  1  0.76890000  0.76060000  0.19880000  1
  C  C191  1  0.74890000  0.70290000  0.19910000  1
  C  C192  1  0.78480000  0.66300000  0.16480000  1
  C  C193  1  0.84100000  0.68110000  0.13020000  1
  C  C194  1  0.86090000  0.73870000  0.12950000  1
  C  C195  1  0.82510000  0.77900000  0.16410000  1
  C  C196  1  0.88090000  0.63640000  0.09590000  1
  C  C197  1  0.68870000  0.67870000  0.23520000  1
  C  C198  1  0.76890000  0.23940000  0.80120000  1
  C  C199  1  0.74890000  0.29710000  0.80090000  1
  C  C200  1  0.78480000  0.33700000  0.83520000  1
  C  C201  1  0.84100000  0.31890000  0.86980000  1
  C  C202  1  0.86090000  0.26130000  0.87050000  1
  C  C203  1  0.82510000  0.22100000  0.83590000  1
  C  C204  1  0.88090000  0.36360000  0.90410000  1
  C  C205  1  0.85070000  0.15910000  0.83880000  1
  C  C206  1  0.26890000  0.19880000  0.23940000  1
  C  C207  1  0.24890000  0.19910000  0.29710000  1
  C  C208  1  0.28480000  0.16480000  0.33700000  1
  C  C209  1  0.34100000  0.13020000  0.31890000  1
  C  C210  1  0.36090000  0.12950000  0.26130000  1
  C  C211  1  0.32510000  0.16410000  0.22100000  1
  C  C212  1  0.38090000  0.09590000  0.36360000  1
  C  C213  1  0.18870000  0.23520000  0.32130000  1
  C  C214  1  0.26890000  0.80120000  0.76060000  1
  C  C215  1  0.24890000  0.80090000  0.70290000  1
  C  C216  1  0.28480000  0.83520000  0.66300000  1
  C  C217  1  0.34100000  0.86980000  0.68110000  1
  C  C218  1  0.36090000  0.87050000  0.73870000  1
  C  C219  1  0.32510000  0.83590000  0.77900000  1
  C  C220  1  0.38090000  0.90410000  0.63640000  1
  C  C221  1  0.18870000  0.76480000  0.67870000  1
  C  C222  1  0.76890000  0.76060000  0.80120000  1
  C  C223  1  0.74890000  0.70290000  0.80090000  1
  C  C224  1  0.78480000  0.66300000  0.83520000  1
  C  C225  1  0.84100000  0.68110000  0.86980000  1
  C  C226  1  0.86090000  0.73870000  0.87050000  1
  C  C227  1  0.82510000  0.77900000  0.83590000  1
  C  C228  1  0.88090000  0.63640000  0.90410000  1
  C  C229  1  0.68870000  0.67870000  0.76480000  1
  C  C230  1  0.65130000  0.47190000  0.95590000  1
  C  C231  1  0.57680000  0.47190000  0.95590000  1
  C  C232  1  0.53910000  0.44110000  0.90780000  1
  C  C233  1  0.76890000  0.23940000  0.19880000  1
  C  C234  1  0.74890000  0.29710000  0.19910000  1
  C  C235  1  0.78480000  0.33700000  0.16480000  1
  C  C236  1  0.84100000  0.31890000  0.13020000  1
  C  C237  1  0.86090000  0.26130000  0.12950000  1
  C  C238  1  0.82510000  0.22100000  0.16410000  1
  C  C239  1  0.88090000  0.36360000  0.09590000  1
  C  C240  1  0.68870000  0.32130000  0.23520000  1
  C  C241  1  0.65130000  0.52810000  0.04410000  1
  C  C242  1  0.57680000  0.52810000  0.04410000  1
  C  C243  1  0.26890000  0.19880000  0.76060000  1
  C  C244  1  0.24890000  0.19910000  0.70290000  1
  C  C245  1  0.28480000  0.16480000  0.66300000  1
  C  C246  1  0.34100000  0.13020000  0.68110000  1
  C  C247  1  0.36090000  0.12950000  0.73870000  1
  C  C248  1  0.32510000  0.16410000  0.77900000  1
  C  C249  1  0.38090000  0.09590000  0.63640000  1
  C  C250  1  0.18870000  0.23520000  0.67870000  1
  C  C251  1  0.15130000  0.04410000  0.47190000  1
  C  C252  1  0.07680000  0.04410000  0.47190000  1
  C  C253  1  0.26890000  0.80120000  0.23940000  1
  C  C254  1  0.24890000  0.80090000  0.29710000  1
  C  C255  1  0.28480000  0.83520000  0.33700000  1
  C  C256  1  0.34100000  0.86980000  0.31890000  1
  C  C257  1  0.36090000  0.87050000  0.26130000  1
  C  C258  1  0.32510000  0.83590000  0.22100000  1
  C  C259  1  0.38090000  0.90410000  0.36360000  1
  C  C260  1  0.18870000  0.76480000  0.32130000  1
  C  C261  1  0.15130000  0.95590000  0.52810000  1
  C  C262  1  0.07680000  0.95590000  0.52810000  1
  C  C263  1  0.03910000  0.90780000  0.55890000  1
  C  C264  1  0.23110000  0.23940000  0.80120000  1
  C  C265  1  0.25110000  0.29710000  0.80090000  1
  C  C266  1  0.21520000  0.33700000  0.83520000  1
  C  C267  1  0.15900000  0.31890000  0.86980000  1
  C  C268  1  0.13910000  0.26130000  0.87050000  1
  C  C269  1  0.17490000  0.22100000  0.83590000  1
  C  C270  1  0.11910000  0.36360000  0.90410000  1
  C  C271  1  0.34870000  0.52810000  0.95590000  1
  C  C272  1  0.42320000  0.52810000  0.95590000  1
  C  C273  1  0.14930000  0.15910000  0.83880000  1
  C  C274  1  0.23110000  0.76060000  0.19880000  1
  C  C275  1  0.25110000  0.70290000  0.19910000  1
  C  C276  1  0.21520000  0.66300000  0.16480000  1
  C  C277  1  0.15900000  0.68110000  0.13020000  1
  C  C278  1  0.13910000  0.73870000  0.12950000  1
  C  C279  1  0.17490000  0.77900000  0.16410000  1
  C  C280  1  0.11910000  0.63640000  0.09590000  1
  C  C281  1  0.34870000  0.47190000  0.04410000  1
  C  C282  1  0.42320000  0.47190000  0.04410000  1
  C  C283  1  0.46090000  0.44110000  0.09220000  1
  C  C284  1  0.14930000  0.84090000  0.16120000  1
  C  C285  1  0.73110000  0.80120000  0.76060000  1
  C  C286  1  0.75110000  0.80090000  0.70290000  1
  C  C287  1  0.71520000  0.83520000  0.66300000  1
  C  C288  1  0.65900000  0.86980000  0.68110000  1
  C  C289  1  0.63910000  0.87050000  0.73870000  1
  C  C290  1  0.67490000  0.83590000  0.77900000  1
  C  C291  1  0.61910000  0.90410000  0.63640000  1
  C  C292  1  0.84870000  0.95590000  0.47190000  1
  C  C293  1  0.92320000  0.95590000  0.47190000  1
  C  C294  1  0.64930000  0.83880000  0.84090000  1
  C  C295  1  0.73110000  0.19880000  0.23940000  1
  C  C296  1  0.75110000  0.19910000  0.29710000  1
  C  C297  1  0.71520000  0.16480000  0.33700000  1
  C  C298  1  0.65900000  0.13020000  0.31890000  1
  C  C299  1  0.63910000  0.12950000  0.26130000  1
  C  C300  1  0.67490000  0.16410000  0.22100000  1
  C  C301  1  0.61910000  0.09590000  0.36360000  1
  C  C302  1  0.84870000  0.04410000  0.52810000  1
  C  C303  1  0.92320000  0.04410000  0.52810000  1
  C  C304  1  0.96090000  0.09220000  0.55890000  1
  C  C305  1  0.64930000  0.16120000  0.15910000  1
  C  C306  1  0.06420000  0.50000000  0.28480000  1
  C  C307  1  0.06420000  0.50000000  0.34560000  1
  C  C308  1  0.06420000  0.50000000  0.71520000  1
  C  C309  1  0.06420000  0.50000000  0.65440000  1
  C  C310  1  0.56420000  0.71520000  0.50000000  1
  C  C311  1  0.56420000  0.65440000  0.50000000  1
  C  C312  1  0.56420000  0.28480000  0.50000000  1
  C  C313  1  0.56420000  0.34560000  0.50000000  1
  C  C314  1  0.93580000  0.50000000  0.28480000  1
  C  C315  1  0.93580000  0.50000000  0.34560000  1
  C  C316  1  0.93580000  0.50000000  0.71520000  1
  C  C317  1  0.93580000  0.50000000  0.65440000  1
  C  C318  1  0.43580000  0.28480000  0.50000000  1
  C  C319  1  0.43580000  0.34560000  0.50000000  1
  C  C320  1  0.43580000  0.71520000  0.50000000  1
  C  C321  1  0.43580000  0.65440000  0.50000000  1
  C  C322  1  0.00000000  0.52000000  0.56044000  1
  C  C323  1  0.00000000  0.57240000  0.53007000  1
  C  C324  1  0.00000000  0.41140000  0.56280000  1
  C  C325  1  1.00000000  0.46780000  0.53012000  1
  C  C326  1  0.50000000  0.56044000  0.48000000  1
  C  C327  1  0.50000000  0.53007000  0.42760000  1
  C  C328  1  0.50000000  0.56280000  0.58860000  1
  C  C329  1  0.50000000  0.53012000  0.53220000  1
  C  C330  1  0.00000000  0.52000000  0.43956000  1
  C  C331  1  1.00000000  0.57240000  0.46993000  1
  C  C332  1  1.00000000  0.46780000  0.46988000  1
  C  C333  1  0.50000000  0.43956000  0.48000000  1
  C  C334  1  0.50000000  0.46993000  0.42760000  1
  C  C335  1  0.50000000  0.46988000  0.53220000  1
  C  C336  1  0.23220000  0.50000000  0.00000000  1
  C  C337  1  0.31180000  0.50000000  0.00000000  1
  C  C338  1  0.46010000  0.50000000  0.00000000  1
  C  C339  1  0.73220000  0.00000000  0.50000000  1
  C  C340  1  0.81180000  0.00000000  0.50000000  1
  C  C341  1  0.96010000  0.00000000  0.50000000  1
  C  C342  1  0.76780000  0.50000000  0.00000000  1
  C  C343  1  0.68820000  0.50000000  0.00000000  1
  C  C344  1  0.53990000  0.50000000  0.00000000  1
  C  C345  1  0.26780000  0.00000000  0.50000000  1
  C  C346  1  0.18820000  0.00000000  0.50000000  1
  C  C347  1  0.03990000  0.00000000  0.50000000  1
  C  C348  1  0.00000000  0.50000000  0.19060000  1
  C  C349  1  0.00000000  0.50000000  0.25530000  1
  C  C350  1  1.00000000  0.50000000  0.37620000  1
  C  C351  1  0.00000000  0.50000000  0.80940000  1
  C  C352  1  0.00000000  0.50000000  0.74470000  1
  C  C353  1  0.00000000  0.50000000  0.62380000  1
  C  C354  1  0.50000000  0.80940000  0.50000000  1
  C  C355  1  0.50000000  0.74470000  0.50000000  1
  C  C356  1  0.50000000  0.62380000  0.50000000  1
  C  C357  1  0.50000000  0.19060000  0.50000000  1
  C  C358  1  0.50000000  0.25530000  0.50000000  1
  C  C359  1  0.50000000  0.37620000  0.50000000  1
  N  N360  1  0.95050000  0.36730000  0.53600000  1
  N  N361  1  0.97200000  0.32200000  0.51700000  1
  N  N362  1  0.54950000  0.53600000  0.63270000  1
  N  N363  1  0.52800000  0.51700000  0.67800000  1
  N  N364  1  0.00000000  0.28170000  0.50000000  1
  N  N365  1  0.50000000  0.50000000  0.71830000  1
  O  O366  1  0.07300000  0.34376000  0.05892000  1
  O  O367  1  0.13450000  0.41614000  0.10820000  1
  O  O368  1  0.07300000  0.65624000  0.94108000  1
  O  O369  1  0.13450000  0.58386000  0.89180000  1
  O  O370  1  0.57300000  0.94108000  0.34376000  1
  O  O371  1  0.63450000  0.89180000  0.41614000  1
  O  O372  1  0.57300000  0.05892000  0.65624000  1
  O  O373  1  0.63450000  0.10820000  0.58386000  1
  O  O374  1  0.92700000  0.65624000  0.05892000  1
  O  O375  1  0.86550000  0.58386000  0.10820000  1
  O  O376  1  0.92700000  0.34376000  0.94108000  1
  O  O377  1  0.86550000  0.41614000  0.89180000  1
  O  O378  1  0.42700000  0.05892000  0.34376000  1
  O  O379  1  0.36550000  0.10820000  0.41614000  1
  O  O380  1  0.42700000  0.94108000  0.65624000  1
  O  O381  1  0.36550000  0.89180000  0.58386000  1
  O  O382  1  0.92700000  0.65624000  0.94108000  1
  O  O383  1  0.86550000  0.58386000  0.89180000  1
  O  O384  1  0.92700000  0.34376000  0.05892000  1
  O  O385  1  0.86550000  0.41614000  0.10820000  1
  O  O386  1  0.42700000  0.05892000  0.65624000  1
  O  O387  1  0.36550000  0.10820000  0.58386000  1
  O  O388  1  0.42700000  0.94108000  0.34376000  1
  O  O389  1  0.36550000  0.89180000  0.41614000  1
  O  O390  1  0.07300000  0.34376000  0.94108000  1
  O  O391  1  0.13450000  0.41614000  0.89180000  1
  O  O392  1  0.07300000  0.65624000  0.05892000  1
  O  O393  1  0.13450000  0.58386000  0.10820000  1
  O  O394  1  0.57300000  0.94108000  0.65624000  1
  O  O395  1  0.63450000  0.89180000  0.58386000  1
  O  O396  1  0.57300000  0.05892000  0.34376000  1
  O  O397  1  0.63450000  0.10820000  0.41614000  1
  O  O398  1  0.06280000  0.50000000  0.16870000  1
  O  O399  1  0.20680000  0.50000000  0.05490000  1
  O  O400  1  0.06280000  0.50000000  0.83130000  1
  O  O401  1  0.20680000  0.50000000  0.94510000  1
  O  O402  1  0.56280000  0.83130000  0.50000000  1
  O  O403  1  0.70680000  0.94510000  0.50000000  1
  O  O404  1  0.56280000  0.16870000  0.50000000  1
  O  O405  1  0.70680000  0.05490000  0.50000000  1
  O  O406  1  0.93720000  0.50000000  0.16870000  1
  O  O407  1  0.79320000  0.50000000  0.05490000  1
  O  O408  1  0.93720000  0.50000000  0.83130000  1
  O  O409  1  0.79320000  0.50000000  0.94510000  1
  O  O410  1  0.43720000  0.16870000  0.50000000  1
  O  O411  1  0.29320000  0.05490000  0.50000000  1
  O  O412  1  0.43720000  0.83130000  0.50000000  1
  O  O413  1  0.29320000  0.94510000  0.50000000  1
  O  O414  1  0.09220000  0.44700000  0.00000000  1
  O  O415  1  0.09220000  0.55300000  0.00000000  1
  O  O416  1  0.59220000  0.00000000  0.44700000  1
  O  O417  1  0.59220000  0.00000000  0.55300000  1
  O  O418  1  0.90780000  0.55300000  0.00000000  1
  O  O419  1  0.90780000  0.44700000  0.00000000  1
  O  O420  1  0.40780000  0.00000000  0.44700000  1
  O  O421  1  0.40780000  0.00000000  0.55300000  1
  O  O422  1  0.00000000  0.44680000  0.07480000  1
  O  O423  1  1.00000000  0.55320000  0.92520000  1
  O  O424  1  0.50000000  0.92520000  0.44680000  1
  O  O425  1  0.50000000  0.07480000  0.55320000  1
  O  O426  1  1.00000000  0.55320000  0.07480000  1
  O  O427  1  0.00000000  0.44680000  0.92520000  1
  O  O428  1  0.50000000  0.07480000  0.44680000  1
  O  O429  1  0.50000000  0.92520000  0.55320000  1
