# generated using pymatgen
data_Zr3H37C51N3O16
_symmetry_space_group_name_H-M   'P 1'
_cell_length_a   18.79570000
_cell_length_b   23.10920000
_cell_length_c   23.10920000
_cell_angle_alpha   90.00000000
_cell_angle_beta   90.00000000
_cell_angle_gamma   90.00000000
_symmetry_Int_Tables_number   1
_chemical_formula_structural   Zr3H37C51N3O16
_chemical_formula_sum   'Zr12 H148 C204 N12 O64'
_cell_volume   10037.56399220
_cell_formula_units_Z   4
loop_
 _symmetry_equiv_pos_site_id
 _symmetry_equiv_pos_as_xyz
  1  'x, y, z'
loop_
 _atom_site_type_symbol
 _atom_site_label
 _atom_site_symmetry_multiplicity
 _atom_site_fract_x
 _atom_site_fract_y
 _atom_site_fract_z
 _atom_site_occupancy
  Zr  Zr0  1  0.09255000  0.42456000  0.00000000  1
  Zr  Zr1  1  0.09255000  0.57544000  0.00000000  1
  Zr  Zr2  1  0.59255000  1.00000000  0.42456000  1
  Zr  Zr3  1  0.59255000  0.00000000  0.57544000  1
  Zr  Zr4  1  0.90745000  0.57544000  0.00000000  1
  Zr  Zr5  1  0.90745000  0.42456000  0.00000000  1
  Zr  Zr6  1  0.40745000  1.00000000  0.42456000  1
  Zr  Zr7  1  0.40745000  0.00000000  0.57544000  1
  Zr  Zr8  1  1.00000000  0.50000000  0.10789000  1
  Zr  Zr9  1  0.00000000  0.50000000  0.89211000  1
  Zr  Zr10  1  0.50000000  0.89211000  0.50000000  1
  Zr  Zr11  1  0.50000000  0.10789000  0.50000000  1
  H  H12  1  0.22830000  0.33410000  0.12310000  1
  H  H13  1  0.10050000  0.39390000  0.25090000  1
  H  H14  1  0.04280000  0.07770000  0.12210000  1
  H  H15  1  0.28930000  0.27650000  0.19040000  1
  H  H16  1  0.10880000  0.36540000  0.34330000  1
  H  H17  1  0.13310000  0.29980000  0.35330000  1
  H  H18  1  0.18750000  0.35160000  0.36580000  1
  H  H19  1  0.22830000  0.66590000  0.87690000  1
  H  H20  1  0.10050000  0.60610000  0.74910000  1
  H  H21  1  0.04280000  0.92230000  0.87790000  1
  H  H22  1  0.28930000  0.72350000  0.80960000  1
  H  H23  1  0.10880000  0.63460000  0.65670000  1
  H  H24  1  0.13310000  0.70020000  0.64670000  1
  H  H25  1  0.18750000  0.64840000  0.63420000  1
  H  H26  1  0.72830000  0.87690000  0.33410000  1
  H  H27  1  0.60050000  0.74910000  0.39390000  1
  H  H28  1  0.54280000  0.87790000  0.07770000  1
  H  H29  1  0.78930000  0.80960000  0.27650000  1
  H  H30  1  0.60880000  0.65670000  0.36540000  1
  H  H31  1  0.63310000  0.64670000  0.29980000  1
  H  H32  1  0.68750000  0.63420000  0.35160000  1
  H  H33  1  0.72830000  0.12310000  0.66590000  1
  H  H34  1  0.60050000  0.25090000  0.60610000  1
  H  H35  1  0.54280000  0.12210000  0.92230000  1
  H  H36  1  0.78930000  0.19040000  0.72350000  1
  H  H37  1  0.60880000  0.34330000  0.63460000  1
  H  H38  1  0.63310000  0.35330000  0.70020000  1
  H  H39  1  0.68750000  0.36580000  0.64840000  1
  H  H40  1  0.77170000  0.66590000  0.12310000  1
  H  H41  1  0.89950000  0.60610000  0.25090000  1
  H  H42  1  0.83890000  0.66470000  0.31820000  1
  H  H43  1  0.68620000  0.72770000  0.13510000  1
  H  H44  1  0.64410000  0.72450000  0.19520000  1
  H  H45  1  0.69830000  0.77650000  0.18320000  1
  H  H46  1  0.77170000  0.33410000  0.87690000  1
  H  H47  1  0.89950000  0.39390000  0.74910000  1
  H  H48  1  0.83890000  0.33530000  0.68180000  1
  H  H49  1  0.68620000  0.27230000  0.86490000  1
  H  H50  1  0.64410000  0.27550000  0.80480000  1
  H  H51  1  0.69830000  0.22350000  0.81680000  1
  H  H52  1  0.51090000  0.41990000  0.91260000  1
  H  H53  1  0.27170000  0.12310000  0.33410000  1
  H  H54  1  0.39950000  0.25090000  0.39390000  1
  H  H55  1  0.33890000  0.31820000  0.33530000  1
  H  H56  1  0.18620000  0.13510000  0.27230000  1
  H  H57  1  0.14410000  0.19520000  0.27550000  1
  H  H58  1  0.19830000  0.18320000  0.22350000  1
  H  H59  1  0.27170000  0.87690000  0.66590000  1
  H  H60  1  0.39950000  0.74910000  0.60610000  1
  H  H61  1  0.33890000  0.68180000  0.66470000  1
  H  H62  1  0.18620000  0.86490000  0.72770000  1
  H  H63  1  0.14410000  0.80480000  0.72450000  1
  H  H64  1  0.19830000  0.81680000  0.77650000  1
  H  H65  1  0.77170000  0.66590000  0.87690000  1
  H  H66  1  0.89950000  0.60610000  0.74910000  1
  H  H67  1  0.83890000  0.66470000  0.68180000  1
  H  H68  1  0.68620000  0.72770000  0.86490000  1
  H  H69  1  0.64410000  0.72450000  0.80480000  1
  H  H70  1  0.69830000  0.77650000  0.81680000  1
  H  H71  1  0.67690000  0.57570000  0.95550000  1
  H  H72  1  0.95720000  0.92230000  0.87790000  1
  H  H73  1  0.51090000  0.61530000  0.97230000  1
  H  H74  1  0.57650000  0.62130000  0.92850000  1
  H  H75  1  0.51090000  0.58010000  0.91260000  1
  H  H76  1  0.77170000  0.33410000  0.12310000  1
  H  H77  1  0.89950000  0.39390000  0.25090000  1
  H  H78  1  0.83890000  0.33530000  0.31820000  1
  H  H79  1  0.68620000  0.27230000  0.13510000  1
  H  H80  1  0.64410000  0.27550000  0.19520000  1
  H  H81  1  0.69830000  0.22350000  0.18320000  1
  H  H82  1  0.67690000  0.42430000  0.04450000  1
  H  H83  1  0.95720000  0.07770000  0.12210000  1
  H  H84  1  0.55190000  0.42430000  0.04460000  1
  H  H85  1  0.27170000  0.12310000  0.66590000  1
  H  H86  1  0.39950000  0.25090000  0.60610000  1
  H  H87  1  0.33890000  0.31820000  0.66470000  1
  H  H88  1  0.18620000  0.13510000  0.72770000  1
  H  H89  1  0.14410000  0.19520000  0.72450000  1
  H  H90  1  0.19830000  0.18320000  0.77650000  1
  H  H91  1  0.17690000  0.04450000  0.57570000  1
  H  H92  1  0.45720000  0.12210000  0.92230000  1
  H  H93  1  0.01090000  0.02770000  0.61530000  1
  H  H94  1  0.07650000  0.07150000  0.62130000  1
  H  H95  1  0.01090000  0.08740000  0.58010000  1
  H  H96  1  0.27170000  0.87690000  0.33410000  1
  H  H97  1  0.39950000  0.74910000  0.39390000  1
  H  H98  1  0.33890000  0.68180000  0.33530000  1
  H  H99  1  0.18620000  0.86490000  0.27230000  1
  H  H100  1  0.14410000  0.80480000  0.27550000  1
  H  H101  1  0.19830000  0.81680000  0.22350000  1
  H  H102  1  0.17690000  0.95550000  0.42430000  1
  H  H103  1  0.45720000  0.87790000  0.07770000  1
  H  H104  1  0.05190000  0.95540000  0.42430000  1
  H  H105  1  0.22830000  0.33410000  0.87690000  1
  H  H106  1  0.10050000  0.39390000  0.74910000  1
  H  H107  1  0.32310000  0.42430000  0.95550000  1
  H  H108  1  0.28930000  0.27650000  0.80960000  1
  H  H109  1  0.10880000  0.36540000  0.65670000  1
  H  H110  1  0.13310000  0.29980000  0.64670000  1
  H  H111  1  0.18750000  0.35160000  0.63420000  1
  H  H112  1  0.48910000  0.38470000  0.97230000  1
  H  H113  1  0.42350000  0.37870000  0.92850000  1
  H  H114  1  0.22830000  0.66590000  0.12310000  1
  H  H115  1  0.10050000  0.60610000  0.25090000  1
  H  H116  1  0.32310000  0.57570000  0.04450000  1
  H  H117  1  0.28930000  0.72350000  0.19040000  1
  H  H118  1  0.44810000  0.57570000  0.04460000  1
  H  H119  1  0.10880000  0.63460000  0.34330000  1
  H  H120  1  0.13310000  0.70020000  0.35330000  1
  H  H121  1  0.18750000  0.64840000  0.36580000  1
  H  H122  1  0.72830000  0.87690000  0.66590000  1
  H  H123  1  0.60050000  0.74910000  0.60610000  1
  H  H124  1  0.82310000  0.95550000  0.57570000  1
  H  H125  1  0.78930000  0.80960000  0.72350000  1
  H  H126  1  0.94810000  0.95540000  0.57570000  1
  H  H127  1  0.60880000  0.65670000  0.63460000  1
  H  H128  1  0.63310000  0.64670000  0.70020000  1
  H  H129  1  0.68750000  0.63420000  0.64840000  1
  H  H130  1  0.72830000  0.12310000  0.33410000  1
  H  H131  1  0.60050000  0.25090000  0.39390000  1
  H  H132  1  0.82310000  0.04450000  0.42430000  1
  H  H133  1  0.78930000  0.19040000  0.27650000  1
  H  H134  1  0.60880000  0.34330000  0.36540000  1
  H  H135  1  0.63310000  0.35330000  0.29980000  1
  H  H136  1  0.68750000  0.36580000  0.35160000  1
  H  H137  1  0.98910000  0.02770000  0.38470000  1
  H  H138  1  0.92350000  0.07150000  0.37870000  1
  H  H139  1  0.98910000  0.08740000  0.41990000  1
  H  H140  1  0.10770000  0.23580000  0.00000000  1
  H  H141  1  0.10790000  0.13420000  0.00000000  1
  H  H142  1  0.10770000  0.76420000  0.00000000  1
  H  H143  1  0.10790000  0.86580000  0.00000000  1
  H  H144  1  0.60770000  0.00000000  0.23580000  1
  H  H145  1  0.60790000  0.00000000  0.13420000  1
  H  H146  1  0.60770000  0.00000000  0.76420000  1
  H  H147  1  0.60790000  0.00000000  0.86580000  1
  H  H148  1  0.89230000  0.76420000  0.00000000  1
  H  H149  1  0.89210000  0.86580000  0.00000000  1
  H  H150  1  0.89230000  0.23580000  0.00000000  1
  H  H151  1  0.89210000  0.13420000  0.00000000  1
  H  H152  1  0.39230000  0.00000000  0.23580000  1
  H  H153  1  0.39210000  0.00000000  0.13420000  1
  H  H154  1  0.39230000  0.00000000  0.76420000  1
  H  H155  1  0.39210000  0.00000000  0.86580000  1
  H  H156  1  1.00000000  0.94840000  0.08730000  1
  H  H157  1  1.00000000  0.05160000  0.91270000  1
  H  H158  1  0.50000000  0.08730000  0.05160000  1
  H  H159  1  0.50000000  0.91270000  0.94840000  1
  C  C160  1  0.23100000  0.30060000  0.26010000  1
  C  C161  1  0.25080000  0.30010000  0.20270000  1
  C  C162  1  0.21460000  0.33440000  0.16270000  1
  C  C163  1  0.15840000  0.36900000  0.18090000  1
  C  C164  1  0.13860000  0.36980000  0.23850000  1
  C  C165  1  0.17480000  0.33520000  0.27860000  1
  C  C166  1  0.11850000  0.40340000  0.13620000  1
  C  C167  1  0.14870000  0.33830000  0.34080000  1
  C  C168  1  0.23100000  0.69940000  0.73990000  1
  C  C169  1  0.25080000  0.69990000  0.79730000  1
  C  C170  1  0.21460000  0.66560000  0.83730000  1
  C  C171  1  0.15840000  0.63100000  0.81910000  1
  C  C172  1  0.13860000  0.63020000  0.76150000  1
  C  C173  1  0.17480000  0.66480000  0.72140000  1
  C  C174  1  0.11850000  0.59660000  0.86380000  1
  C  C175  1  0.14870000  0.66170000  0.65920000  1
  C  C176  1  0.73100000  0.73990000  0.30060000  1
  C  C177  1  0.75080000  0.79730000  0.30010000  1
  C  C178  1  0.71460000  0.83730000  0.33440000  1
  C  C179  1  0.65840000  0.81910000  0.36900000  1
  C  C180  1  0.63860000  0.76150000  0.36980000  1
  C  C181  1  0.67480000  0.72140000  0.33520000  1
  C  C182  1  0.61850000  0.86380000  0.40340000  1
  C  C183  1  0.64870000  0.65920000  0.33830000  1
  C  C184  1  0.73100000  0.26010000  0.69940000  1
  C  C185  1  0.75080000  0.20270000  0.69990000  1
  C  C186  1  0.71460000  0.16270000  0.66560000  1
  C  C187  1  0.65840000  0.18090000  0.63100000  1
  C  C188  1  0.63860000  0.23850000  0.63020000  1
  C  C189  1  0.67480000  0.27860000  0.66480000  1
  C  C190  1  0.61850000  0.13620000  0.59660000  1
  C  C191  1  0.64870000  0.34080000  0.66170000  1
  C  C192  1  0.76900000  0.69940000  0.26010000  1
  C  C193  1  0.74920000  0.69990000  0.20270000  1
  C  C194  1  0.78540000  0.66560000  0.16270000  1
  C  C195  1  0.84160000  0.63100000  0.18090000  1
  C  C196  1  0.86140000  0.63020000  0.23850000  1
  C  C197  1  0.82520000  0.66480000  0.27860000  1
  C  C198  1  0.88150000  0.59660000  0.13620000  1
  C  C199  1  0.68910000  0.73530000  0.17680000  1
  C  C200  1  0.76900000  0.30060000  0.73990000  1
  C  C201  1  0.74920000  0.30010000  0.79730000  1
  C  C202  1  0.78540000  0.33440000  0.83730000  1
  C  C203  1  0.84160000  0.36900000  0.81910000  1
  C  C204  1  0.86140000  0.36980000  0.76150000  1
  C  C205  1  0.82520000  0.33520000  0.72140000  1
  C  C206  1  0.88150000  0.40340000  0.86380000  1
  C  C207  1  0.68910000  0.26470000  0.82320000  1
  C  C208  1  0.26900000  0.26010000  0.30060000  1
  C  C209  1  0.24920000  0.20270000  0.30010000  1
  C  C210  1  0.28540000  0.16270000  0.33440000  1
  C  C211  1  0.34160000  0.18090000  0.36900000  1
  C  C212  1  0.36140000  0.23850000  0.36980000  1
  C  C213  1  0.32520000  0.27860000  0.33520000  1
  C  C214  1  0.38150000  0.13620000  0.40340000  1
  C  C215  1  0.18910000  0.17680000  0.26470000  1
  C  C216  1  0.26900000  0.73990000  0.69940000  1
  C  C217  1  0.24920000  0.79730000  0.69990000  1
  C  C218  1  0.28540000  0.83730000  0.66560000  1
  C  C219  1  0.34160000  0.81910000  0.63100000  1
  C  C220  1  0.36140000  0.76150000  0.63020000  1
  C  C221  1  0.32520000  0.72140000  0.66480000  1
  C  C222  1  0.38150000  0.86380000  0.59660000  1
  C  C223  1  0.18910000  0.82320000  0.73530000  1
  C  C224  1  0.76900000  0.69940000  0.73990000  1
  C  C225  1  0.74920000  0.69990000  0.79730000  1
  C  C226  1  0.78540000  0.66560000  0.83730000  1
  C  C227  1  0.84160000  0.63100000  0.81910000  1
  C  C228  1  0.86140000  0.63020000  0.76150000  1
  C  C229  1  0.82520000  0.66480000  0.72140000  1
  C  C230  1  0.88150000  0.59660000  0.86380000  1
  C  C231  1  0.68910000  0.73530000  0.82320000  1
  C  C232  1  0.65150000  0.54500000  0.97350000  1
  C  C233  1  0.57720000  0.54500000  0.97350000  1
  C  C234  1  0.54070000  0.59480000  0.94420000  1
  C  C235  1  0.76900000  0.30060000  0.26010000  1
  C  C236  1  0.74920000  0.30010000  0.20270000  1
  C  C237  1  0.78540000  0.33440000  0.16270000  1
  C  C238  1  0.84160000  0.36900000  0.18090000  1
  C  C239  1  0.86140000  0.36980000  0.23850000  1
  C  C240  1  0.82520000  0.33520000  0.27860000  1
  C  C241  1  0.88150000  0.40340000  0.13620000  1
  C  C242  1  0.68910000  0.26470000  0.17680000  1
  C  C243  1  0.65150000  0.45500000  0.02650000  1
  C  C244  1  0.57720000  0.45500000  0.02650000  1
  C  C245  1  0.26900000  0.26010000  0.69940000  1
  C  C246  1  0.24920000  0.20270000  0.69990000  1
  C  C247  1  0.28540000  0.16270000  0.66560000  1
  C  C248  1  0.34160000  0.18090000  0.63100000  1
  C  C249  1  0.36140000  0.23850000  0.63020000  1
  C  C250  1  0.32520000  0.27860000  0.66480000  1
  C  C251  1  0.38150000  0.13620000  0.59660000  1
  C  C252  1  0.18910000  0.17680000  0.73530000  1
  C  C253  1  0.15150000  0.02650000  0.54500000  1
  C  C254  1  0.07720000  0.02650000  0.54500000  1
  C  C255  1  0.04070000  0.05580000  0.59480000  1
  C  C256  1  0.26900000  0.73990000  0.30060000  1
  C  C257  1  0.24920000  0.79730000  0.30010000  1
  C  C258  1  0.28540000  0.83730000  0.33440000  1
  C  C259  1  0.34160000  0.81910000  0.36900000  1
  C  C260  1  0.36140000  0.76150000  0.36980000  1
  C  C261  1  0.32520000  0.72140000  0.33520000  1
  C  C262  1  0.38150000  0.86380000  0.40340000  1
  C  C263  1  0.18910000  0.82320000  0.26470000  1
  C  C264  1  0.15150000  0.97350000  0.45500000  1
  C  C265  1  0.07720000  0.97350000  0.45500000  1
  C  C266  1  0.23100000  0.30060000  0.73990000  1
  C  C267  1  0.25080000  0.30010000  0.79730000  1
  C  C268  1  0.21460000  0.33440000  0.83730000  1
  C  C269  1  0.15840000  0.36900000  0.81910000  1
  C  C270  1  0.13860000  0.36980000  0.76150000  1
  C  C271  1  0.17480000  0.33520000  0.72140000  1
  C  C272  1  0.11850000  0.40340000  0.86380000  1
  C  C273  1  0.34850000  0.45500000  0.97350000  1
  C  C274  1  0.42280000  0.45500000  0.97350000  1
  C  C275  1  0.45930000  0.40520000  0.94420000  1
  C  C276  1  0.14870000  0.33830000  0.65920000  1
  C  C277  1  0.23100000  0.69940000  0.26010000  1
  C  C278  1  0.25080000  0.69990000  0.20270000  1
  C  C279  1  0.21460000  0.66560000  0.16270000  1
  C  C280  1  0.15840000  0.63100000  0.18090000  1
  C  C281  1  0.13860000  0.63020000  0.23850000  1
  C  C282  1  0.17480000  0.66480000  0.27860000  1
  C  C283  1  0.11850000  0.59660000  0.13620000  1
  C  C284  1  0.34850000  0.54500000  0.02650000  1
  C  C285  1  0.42280000  0.54500000  0.02650000  1
  C  C286  1  0.14870000  0.66170000  0.34080000  1
  C  C287  1  0.73100000  0.73990000  0.69940000  1
  C  C288  1  0.75080000  0.79730000  0.69990000  1
  C  C289  1  0.71460000  0.83730000  0.66560000  1
  C  C290  1  0.65840000  0.81910000  0.63100000  1
  C  C291  1  0.63860000  0.76150000  0.63020000  1
  C  C292  1  0.67480000  0.72140000  0.66480000  1
  C  C293  1  0.61850000  0.86380000  0.59660000  1
  C  C294  1  0.84850000  0.97350000  0.54500000  1
  C  C295  1  0.92280000  0.97350000  0.54500000  1
  C  C296  1  0.64870000  0.65920000  0.66170000  1
  C  C297  1  0.73100000  0.26010000  0.30060000  1
  C  C298  1  0.75080000  0.20270000  0.30010000  1
  C  C299  1  0.71460000  0.16270000  0.33440000  1
  C  C300  1  0.65840000  0.18090000  0.36900000  1
  C  C301  1  0.63860000  0.23850000  0.36980000  1
  C  C302  1  0.67480000  0.27860000  0.33520000  1
  C  C303  1  0.61850000  0.13620000  0.40340000  1
  C  C304  1  0.84850000  0.02650000  0.45500000  1
  C  C305  1  0.92280000  0.02650000  0.45500000  1
  C  C306  1  0.95930000  0.05580000  0.40520000  1
  C  C307  1  0.64870000  0.34080000  0.33830000  1
  C  C308  1  0.06410000  0.21510000  0.00000000  1
  C  C309  1  0.06410000  0.15470000  0.00000000  1
  C  C310  1  0.06410000  0.78490000  0.00000000  1
  C  C311  1  0.06410000  0.84530000  0.00000000  1
  C  C312  1  0.56410000  0.00000000  0.21510000  1
  C  C313  1  0.56410000  0.00000000  0.15470000  1
  C  C314  1  0.56410000  0.00000000  0.78490000  1
  C  C315  1  0.56410000  0.00000000  0.84530000  1
  C  C316  1  0.93590000  0.78490000  0.00000000  1
  C  C317  1  0.93590000  0.84530000  0.00000000  1
  C  C318  1  0.93590000  0.21510000  0.00000000  1
  C  C319  1  0.93590000  0.15470000  0.00000000  1
  C  C320  1  0.43590000  0.00000000  0.21510000  1
  C  C321  1  0.43590000  0.00000000  0.15470000  1
  C  C322  1  0.43590000  0.00000000  0.78490000  1
  C  C323  1  0.43590000  0.00000000  0.84530000  1
  C  C324  1  1.00000000  0.03088000  0.05177000  1
  C  C325  1  0.00000000  0.05400000  0.11460000  1
  C  C326  1  1.00000000  0.96912000  0.94823000  1
  C  C327  1  1.00000000  0.94600000  0.88540000  1
  C  C328  1  0.50000000  0.94823000  0.03088000  1
  C  C329  1  0.50000000  0.88540000  0.05400000  1
  C  C330  1  0.50000000  0.05177000  0.96912000  1
  C  C331  1  0.50000000  0.11460000  0.94600000  1
  C  C332  1  0.00000000  0.96912000  0.05177000  1
  C  C333  1  1.00000000  0.03088000  0.94823000  1
  C  C334  1  0.50000000  0.05177000  0.03088000  1
  C  C335  1  0.50000000  0.94823000  0.96912000  1
  C  C336  1  0.23260000  0.50000000  0.00000000  1
  C  C337  1  0.31180000  0.50000000  0.00000000  1
  C  C338  1  0.46000000  0.50000000  0.00000000  1
  C  C339  1  0.73260000  0.00000000  0.50000000  1
  C  C340  1  0.81180000  0.00000000  0.50000000  1
  C  C341  1  0.96000000  0.00000000  0.50000000  1
  C  C342  1  0.76740000  0.50000000  0.00000000  1
  C  C343  1  0.68820000  0.50000000  0.00000000  1
  C  C344  1  0.54000000  0.50000000  0.00000000  1
  C  C345  1  0.26740000  0.00000000  0.50000000  1
  C  C346  1  0.18820000  0.00000000  0.50000000  1
  C  C347  1  0.04000000  0.00000000  0.50000000  1
  C  C348  1  1.00000000  0.30900000  0.00000000  1
  C  C349  1  1.00000000  0.24470000  0.00000000  1
  C  C350  1  1.00000000  0.12460000  0.00000000  1
  C  C351  1  1.00000000  0.06013000  0.00000000  1
  C  C352  1  1.00000000  0.69100000  0.00000000  1
  C  C353  1  1.00000000  0.75530000  0.00000000  1
  C  C354  1  1.00000000  0.87540000  0.00000000  1
  C  C355  1  1.00000000  0.93987000  0.00000000  1
  C  C356  1  0.50000000  0.00000000  0.30900000  1
  C  C357  1  0.50000000  0.00000000  0.24470000  1
  C  C358  1  0.50000000  0.00000000  0.12460000  1
  C  C359  1  0.50000000  0.00000000  0.06013000  1
  C  C360  1  0.50000000  0.00000000  0.69100000  1
  C  C361  1  0.50000000  0.00000000  0.75530000  1
  C  C362  1  0.50000000  0.00000000  0.87540000  1
  C  C363  1  0.50000000  0.00000000  0.93987000  1
  N  N364  1  0.00000000  0.98220000  0.20300000  1
  N  N365  1  1.00000000  0.01780000  0.79700000  1
  N  N366  1  0.50000000  0.20300000  0.01780000  1
  N  N367  1  0.50000000  0.79700000  0.98220000  1
  N  N368  1  0.00000000  0.00000000  0.15260000  1
  N  N369  1  1.00000000  0.00000000  0.25050000  1
  N  N370  1  1.00000000  0.00000000  0.84740000  1
  N  N371  1  0.00000000  1.00000000  0.74950000  1
  N  N372  1  0.50000000  0.84740000  0.00000000  1
  N  N373  1  0.50000000  0.74950000  0.00000000  1
  N  N374  1  0.50000000  0.15260000  0.00000000  1
  N  N375  1  0.50000000  0.25050000  0.00000000  1
  O  O376  1  0.13490000  0.39157000  0.08352000  1
  O  O377  1  0.07280000  0.44111000  0.15618000  1
  O  O378  1  0.13490000  0.60843000  0.91648000  1
  O  O379  1  0.07280000  0.55889000  0.84382000  1
  O  O380  1  0.63490000  0.91648000  0.39157000  1
  O  O381  1  0.57280000  0.84382000  0.44111000  1
  O  O382  1  0.63490000  0.08352000  0.60843000  1
  O  O383  1  0.57280000  0.15618000  0.55889000  1
  O  O384  1  0.86510000  0.60843000  0.08352000  1
  O  O385  1  0.92720000  0.55889000  0.15618000  1
  O  O386  1  0.86510000  0.39157000  0.91648000  1
  O  O387  1  0.92720000  0.44111000  0.84382000  1
  O  O388  1  0.36510000  0.08352000  0.39157000  1
  O  O389  1  0.42720000  0.15618000  0.44111000  1
  O  O390  1  0.36510000  0.91648000  0.60843000  1
  O  O391  1  0.42720000  0.84382000  0.55889000  1
  O  O392  1  0.86510000  0.60843000  0.91648000  1
  O  O393  1  0.92720000  0.55889000  0.84382000  1
  O  O394  1  0.86510000  0.39157000  0.08352000  1
  O  O395  1  0.92720000  0.44111000  0.15618000  1
  O  O396  1  0.36510000  0.08352000  0.60843000  1
  O  O397  1  0.42720000  0.15618000  0.55889000  1
  O  O398  1  0.36510000  0.91648000  0.39157000  1
  O  O399  1  0.42720000  0.84382000  0.44111000  1
  O  O400  1  0.13490000  0.39157000  0.91648000  1
  O  O401  1  0.07280000  0.44111000  0.84382000  1
  O  O402  1  0.13490000  0.60843000  0.08352000  1
  O  O403  1  0.07280000  0.55889000  0.15618000  1
  O  O404  1  0.63490000  0.91648000  0.60843000  1
  O  O405  1  0.57280000  0.84382000  0.55889000  1
  O  O406  1  0.63490000  0.08352000  0.39157000  1
  O  O407  1  0.57280000  0.15618000  0.44111000  1
  O  O408  1  0.20570000  0.44560000  0.00000000  1
  O  O409  1  0.06210000  0.33200000  0.00000000  1
  O  O410  1  0.20570000  0.55440000  0.00000000  1
  O  O411  1  0.06210000  0.66800000  0.00000000  1
  O  O412  1  0.70570000  1.00000000  0.44560000  1
  O  O413  1  0.56210000  0.00000000  0.33200000  1
  O  O414  1  0.70570000  0.00000000  0.55440000  1
  O  O415  1  0.56210000  0.00000000  0.66800000  1
  O  O416  1  0.79430000  0.55440000  0.00000000  1
  O  O417  1  0.93790000  0.66800000  0.00000000  1
  O  O418  1  0.79430000  0.44560000  0.00000000  1
  O  O419  1  0.93790000  0.33200000  0.00000000  1
  O  O420  1  0.29430000  1.00000000  0.44560000  1
  O  O421  1  0.43790000  0.00000000  0.33200000  1
  O  O422  1  0.29430000  0.00000000  0.55440000  1
  O  O423  1  0.43790000  0.00000000  0.66800000  1
  O  O424  1  0.09300000  0.50000000  0.05360000  1
  O  O425  1  0.09300000  0.50000000  0.94640000  1
  O  O426  1  0.59300000  0.94640000  0.50000000  1
  O  O427  1  0.59300000  0.05360000  0.50000000  1
  O  O428  1  0.90700000  0.50000000  0.05360000  1
  O  O429  1  0.90700000  0.50000000  0.94640000  1
  O  O430  1  0.40700000  0.05360000  0.50000000  1
  O  O431  1  0.40700000  0.94640000  0.50000000  1
  O  O432  1  0.00000000  0.42510000  0.05360000  1
  O  O433  1  0.00000000  0.57490000  0.94640000  1
  O  O434  1  0.50000000  0.94640000  0.42510000  1
  O  O435  1  0.50000000  0.05360000  0.57490000  1
  O  O436  1  1.00000000  0.57490000  0.05360000  1
  O  O437  1  1.00000000  0.42510000  0.94640000  1
  O  O438  1  0.50000000  0.05360000  0.42510000  1
  O  O439  1  0.50000000  0.94640000  0.57490000  1
