# generated using pymatgen
data_Zr12H151C208(N12O35)2
_symmetry_space_group_name_H-M   'P 1'
_cell_length_a   18.61870000
_cell_length_b   23.07420000
_cell_length_c   23.07420000
_cell_angle_alpha   90.00000000
_cell_angle_beta   90.00000000
_cell_angle_gamma   90.00000000
_symmetry_Int_Tables_number   1
_chemical_formula_structural   Zr12H151C208(N12O35)2
_chemical_formula_sum   'Zr12 H151 C208 N24 O70'
_cell_volume   9912.94415470
_cell_formula_units_Z   1
loop_
 _symmetry_equiv_pos_site_id
 _symmetry_equiv_pos_as_xyz
  1  'x, y, z'
loop_
 _atom_site_type_symbol
 _atom_site_label
 _atom_site_symmetry_multiplicity
 _atom_site_fract_x
 _atom_site_fract_y
 _atom_site_fract_z
 _atom_site_occupancy
  Zr  Zr0  1  1.00000000  0.50000000  0.89274000  1
  Zr  Zr1  1  1.00000000  0.50000000  0.10726000  1
  Zr  Zr2  1  0.50000000  0.10726000  0.50000000  1
  Zr  Zr3  1  0.50000000  0.89274000  0.50000000  1
  Zr  Zr4  1  0.90664000  0.42413000  0.00000000  1
  Zr  Zr5  1  0.90664000  0.57587000  0.00000000  1
  Zr  Zr6  1  0.40664000  0.00000000  0.42413000  1
  Zr  Zr7  1  0.40664000  0.00000000  0.57587000  1
  Zr  Zr8  1  0.09336000  0.57587000  0.00000000  1
  Zr  Zr9  1  0.09336000  0.42413000  0.00000000  1
  Zr  Zr10  1  0.59336000  0.00000000  0.42413000  1
  Zr  Zr11  1  0.59336000  0.00000000  0.57587000  1
  H  H12  1  0.22950000  0.66350000  0.87480000  1
  H  H13  1  0.09820000  0.60530000  0.74770000  1
  H  H14  1  0.29030000  0.27850000  0.19230000  1
  H  H15  1  0.13980000  0.29930000  0.35660000  1
  H  H16  1  0.10160000  0.36000000  0.34370000  1
  H  H17  1  0.18300000  0.35850000  0.36610000  1
  H  H18  1  0.22950000  0.33650000  0.12520000  1
  H  H19  1  0.09820000  0.39470000  0.25230000  1
  H  H20  1  0.29030000  0.72150000  0.80770000  1
  H  H21  1  0.13980000  0.70070000  0.64340000  1
  H  H22  1  0.10160000  0.64000000  0.65630000  1
  H  H23  1  0.18300000  0.64150000  0.63390000  1
  H  H24  1  0.49140000  0.75130000  0.96530000  1
  H  H25  1  0.57510000  0.90450000  0.10350000  1
  H  H26  1  0.53210000  0.87520000  0.05290000  1
  H  H27  1  0.72950000  0.12520000  0.66350000  1
  H  H28  1  0.59820000  0.25230000  0.60530000  1
  H  H29  1  0.99140000  0.96530000  0.24870000  1
  H  H30  1  0.57510000  0.09550000  0.89650000  1
  H  H31  1  0.53210000  0.12480000  0.94710000  1
  H  H32  1  0.72950000  0.87480000  0.33650000  1
  H  H33  1  0.59820000  0.74770000  0.39470000  1
  H  H34  1  0.65890000  0.68020000  0.33620000  1
  H  H35  1  0.83020000  0.78770000  0.24040000  1
  H  H36  1  0.85130000  0.83130000  0.29170000  1
  H  H37  1  0.79560000  0.85120000  0.24270000  1
  H  H38  1  0.79030000  0.19230000  0.72150000  1
  H  H39  1  0.63980000  0.35660000  0.70070000  1
  H  H40  1  0.60160000  0.34370000  0.64000000  1
  H  H41  1  0.68300000  0.36610000  0.64150000  1
  H  H42  1  0.92490000  0.89650000  0.09550000  1
  H  H43  1  0.96790000  0.94710000  0.12480000  1
  H  H44  1  0.77050000  0.33650000  0.87480000  1
  H  H45  1  0.90180000  0.39470000  0.74770000  1
  H  H46  1  0.84110000  0.33620000  0.68020000  1
  H  H47  1  0.66980000  0.24040000  0.78770000  1
  H  H48  1  0.64870000  0.29170000  0.83130000  1
  H  H49  1  0.70440000  0.24270000  0.85120000  1
  H  H50  1  0.70970000  0.72150000  0.19230000  1
  H  H51  1  0.86020000  0.70070000  0.35660000  1
  H  H52  1  0.89840000  0.64000000  0.34370000  1
  H  H53  1  0.81700000  0.64150000  0.36610000  1
  H  H54  1  0.55190000  0.50910000  0.96540000  1
  H  H55  1  0.92490000  0.10350000  0.90450000  1
  H  H56  1  0.96790000  0.05290000  0.87520000  1
  H  H57  1  0.77050000  0.66350000  0.12520000  1
  H  H58  1  0.90180000  0.60530000  0.25230000  1
  H  H59  1  0.27050000  0.87480000  0.66350000  1
  H  H60  1  0.40180000  0.74770000  0.60530000  1
  H  H61  1  0.34110000  0.68020000  0.66380000  1
  H  H62  1  0.16980000  0.78770000  0.75960000  1
  H  H63  1  0.14870000  0.83130000  0.70830000  1
  H  H64  1  0.20440000  0.85120000  0.75730000  1
  H  H65  1  0.27050000  0.12520000  0.33650000  1
  H  H66  1  0.40180000  0.25230000  0.39470000  1
  H  H67  1  0.34110000  0.31980000  0.33620000  1
  H  H68  1  0.16980000  0.21230000  0.24040000  1
  H  H69  1  0.14870000  0.16870000  0.29170000  1
  H  H70  1  0.20440000  0.14880000  0.24270000  1
  H  H71  1  0.92490000  0.89650000  0.90450000  1
  H  H72  1  0.96790000  0.94710000  0.87520000  1
  H  H73  1  0.77050000  0.33650000  0.12520000  1
  H  H74  1  0.90180000  0.39470000  0.25230000  1
  H  H75  1  0.84110000  0.33620000  0.31980000  1
  H  H76  1  0.66980000  0.24040000  0.21230000  1
  H  H77  1  0.64870000  0.29170000  0.16870000  1
  H  H78  1  0.70440000  0.24270000  0.14880000  1
  H  H79  1  0.55190000  0.50910000  0.03460000  1
  H  H80  1  0.92490000  0.10350000  0.09550000  1
  H  H81  1  0.96790000  0.05290000  0.12480000  1
  H  H82  1  0.77050000  0.66350000  0.87480000  1
  H  H83  1  0.90180000  0.60530000  0.74770000  1
  H  H84  1  0.84110000  0.66380000  0.68020000  1
  H  H85  1  0.66980000  0.75960000  0.78770000  1
  H  H86  1  0.64870000  0.70830000  0.83130000  1
  H  H87  1  0.70440000  0.75730000  0.85120000  1
  H  H88  1  0.27050000  0.87480000  0.33650000  1
  H  H89  1  0.40180000  0.74770000  0.39470000  1
  H  H90  1  0.34110000  0.68020000  0.33620000  1
  H  H91  1  0.16980000  0.78770000  0.24040000  1
  H  H92  1  0.14870000  0.83130000  0.29170000  1
  H  H93  1  0.20440000  0.85120000  0.24270000  1
  H  H94  1  0.27050000  0.12520000  0.66350000  1
  H  H95  1  0.40180000  0.25230000  0.60530000  1
  H  H96  1  0.34110000  0.31980000  0.66380000  1
  H  H97  1  0.16980000  0.21230000  0.75960000  1
  H  H98  1  0.14870000  0.16870000  0.70830000  1
  H  H99  1  0.20440000  0.14880000  0.75730000  1
  H  H100  1  0.22950000  0.66350000  0.12520000  1
  H  H101  1  0.09820000  0.60530000  0.25230000  1
  H  H102  1  0.29030000  0.27850000  0.80770000  1
  H  H103  1  0.13980000  0.29930000  0.64340000  1
  H  H104  1  0.10160000  0.36000000  0.65630000  1
  H  H105  1  0.18300000  0.35850000  0.63390000  1
  H  H106  1  0.22950000  0.33650000  0.87480000  1
  H  H107  1  0.09820000  0.39470000  0.74770000  1
  H  H108  1  0.29030000  0.72150000  0.19230000  1
  H  H109  1  0.13980000  0.70070000  0.35660000  1
  H  H110  1  0.10160000  0.64000000  0.34370000  1
  H  H111  1  0.18300000  0.64150000  0.36610000  1
  H  H112  1  0.49140000  0.75130000  0.03470000  1
  H  H113  1  0.57510000  0.90450000  0.89650000  1
  H  H114  1  0.53210000  0.87520000  0.94710000  1
  H  H115  1  0.72950000  0.12520000  0.33650000  1
  H  H116  1  0.59820000  0.25230000  0.39470000  1
  H  H117  1  0.79030000  0.80770000  0.72150000  1
  H  H118  1  0.63980000  0.64340000  0.70070000  1
  H  H119  1  0.60160000  0.65630000  0.64000000  1
  H  H120  1  0.68300000  0.63390000  0.64150000  1
  H  H121  1  0.57510000  0.09550000  0.10350000  1
  H  H122  1  0.53210000  0.12480000  0.05290000  1
  H  H123  1  0.72950000  0.87480000  0.66350000  1
  H  H124  1  0.59820000  0.74770000  0.60530000  1
  H  H125  1  0.79030000  0.19230000  0.27850000  1
  H  H126  1  0.63980000  0.35660000  0.29930000  1
  H  H127  1  0.60160000  0.34370000  0.36000000  1
  H  H128  1  0.68300000  0.36610000  0.35850000  1
  H  H129  1  0.99140000  0.03470000  0.24870000  1
  H  H130  1  0.67870000  0.55240000  0.00000000  1
  H  H131  1  0.67820000  0.72810000  0.00000000  1
  H  H132  1  0.44710000  0.55220000  0.00000000  1
  H  H133  1  0.42650000  0.78070000  0.00000000  1
  H  H134  1  0.65040000  0.00000000  0.25210000  1
  H  H135  1  0.67500000  0.00000000  0.15270000  1
  H  H136  1  0.17870000  1.00000000  0.44760000  1
  H  H137  1  0.17820000  0.00000000  0.27190000  1
  H  H138  1  0.94710000  0.00000000  0.44780000  1
  H  H139  1  0.46170000  0.00000000  0.11820000  1
  H  H140  1  0.43680000  0.00000000  0.21780000  1
  H  H141  1  0.92650000  0.00000000  0.21930000  1
  H  H142  1  0.65040000  0.00000000  0.74790000  1
  H  H143  1  0.67500000  0.00000000  0.84730000  1
  H  H144  1  0.46170000  0.00000000  0.88180000  1
  H  H145  1  0.43680000  0.00000000  0.78220000  1
  H  H146  1  0.84960000  0.74790000  0.00000000  1
  H  H147  1  0.82500000  0.84730000  0.00000000  1
  H  H148  1  0.32130000  0.55240000  0.00000000  1
  H  H149  1  0.32180000  0.72810000  0.00000000  1
  H  H150  1  0.03830000  0.88180000  0.00000000  1
  H  H151  1  0.06320000  0.78220000  0.00000000  1
  H  H152  1  0.55250000  0.72790000  0.00000000  1
  H  H153  1  0.84960000  0.25210000  0.00000000  1
  H  H154  1  0.82500000  0.15270000  0.00000000  1
  H  H155  1  0.03830000  0.11820000  0.00000000  1
  H  H156  1  0.06320000  0.21780000  0.00000000  1
  H  H157  1  0.82130000  1.00000000  0.44760000  1
  H  H158  1  0.82180000  0.00000000  0.27190000  1
  H  H159  1  0.05250000  0.00000000  0.27210000  1
  H  H160  1  0.02271000  0.95507000  0.48313000  1
  H  H161  1  0.02269000  0.04493000  0.48313000  1
  H  H162  1  0.08134000  0.00000000  0.50251000  1
  C  C163  1  0.23030000  0.69800000  0.73780000  1
  C  C164  1  0.25120000  0.69800000  0.79540000  1
  C  C165  1  0.21520000  0.66350000  0.83530000  1
  C  C166  1  0.15800000  0.62900000  0.81740000  1
  C  C167  1  0.13710000  0.62900000  0.75990000  1
  C  C168  1  0.17330000  0.66370000  0.71970000  1
  C  C169  1  0.11620000  0.59520000  0.86160000  1
  C  C170  1  0.14710000  0.33870000  0.34210000  1
  C  C171  1  0.23030000  0.30200000  0.26220000  1
  C  C172  1  0.25120000  0.30200000  0.20460000  1
  C  C173  1  0.21520000  0.33650000  0.16470000  1
  C  C174  1  0.15800000  0.37100000  0.18260000  1
  C  C175  1  0.13710000  0.37100000  0.24010000  1
  C  C176  1  0.17330000  0.33630000  0.28030000  1
  C  C177  1  0.11620000  0.40480000  0.13840000  1
  C  C178  1  0.14710000  0.66130000  0.65790000  1
  C  C179  1  0.57980000  0.94768000  0.03024000  1
  C  C180  1  0.57980000  0.89140000  0.06290000  1
  C  C181  1  0.73030000  0.26220000  0.69800000  1
  C  C182  1  0.75120000  0.20460000  0.69800000  1
  C  C183  1  0.71520000  0.16470000  0.66350000  1
  C  C184  1  0.65800000  0.18260000  0.62900000  1
  C  C185  1  0.63710000  0.24010000  0.62900000  1
  C  C186  1  0.67330000  0.28030000  0.66370000  1
  C  C187  1  0.61620000  0.13840000  0.59520000  1
  C  C188  1  0.57980000  0.05232000  0.96976000  1
  C  C189  1  0.57980000  0.10860000  0.93710000  1
  C  C190  1  0.73030000  0.73780000  0.30200000  1
  C  C191  1  0.75120000  0.79540000  0.30200000  1
  C  C192  1  0.71520000  0.83530000  0.33650000  1
  C  C193  1  0.65800000  0.81740000  0.37100000  1
  C  C194  1  0.63710000  0.75990000  0.37100000  1
  C  C195  1  0.67330000  0.71970000  0.33630000  1
  C  C196  1  0.61620000  0.86160000  0.40480000  1
  C  C197  1  0.81240000  0.81840000  0.26610000  1
  C  C198  1  0.64710000  0.34210000  0.66130000  1
  C  C199  1  0.92020000  0.96976000  0.05232000  1
  C  C200  1  0.92020000  0.93710000  0.10860000  1
  C  C201  1  0.76970000  0.30200000  0.73780000  1
  C  C202  1  0.74880000  0.30200000  0.79540000  1
  C  C203  1  0.78480000  0.33650000  0.83530000  1
  C  C204  1  0.84200000  0.37100000  0.81740000  1
  C  C205  1  0.86290000  0.37100000  0.75990000  1
  C  C206  1  0.82670000  0.33630000  0.71970000  1
  C  C207  1  0.88380000  0.40480000  0.86160000  1
  C  C208  1  0.68760000  0.26610000  0.81840000  1
  C  C209  1  0.85290000  0.66130000  0.34210000  1
  C  C210  1  0.92020000  0.03024000  0.94768000  1
  C  C211  1  0.92020000  0.06290000  0.89140000  1
  C  C212  1  0.76970000  0.69800000  0.26220000  1
  C  C213  1  0.74880000  0.69800000  0.20460000  1
  C  C214  1  0.78480000  0.66350000  0.16470000  1
  C  C215  1  0.84200000  0.62900000  0.18260000  1
  C  C216  1  0.86290000  0.62900000  0.24010000  1
  C  C217  1  0.82670000  0.66370000  0.28030000  1
  C  C218  1  0.88380000  0.59520000  0.13840000  1
  C  C219  1  0.26970000  0.73780000  0.69800000  1
  C  C220  1  0.24880000  0.79540000  0.69800000  1
  C  C221  1  0.28480000  0.83530000  0.66350000  1
  C  C222  1  0.34200000  0.81740000  0.62900000  1
  C  C223  1  0.36290000  0.75990000  0.62900000  1
  C  C224  1  0.32670000  0.71970000  0.66370000  1
  C  C225  1  0.38380000  0.86160000  0.59520000  1
  C  C226  1  0.18760000  0.81840000  0.73390000  1
  C  C227  1  0.26970000  0.26220000  0.30200000  1
  C  C228  1  0.24880000  0.20460000  0.30200000  1
  C  C229  1  0.28480000  0.16470000  0.33650000  1
  C  C230  1  0.34200000  0.18260000  0.37100000  1
  C  C231  1  0.36290000  0.24010000  0.37100000  1
  C  C232  1  0.32670000  0.28030000  0.33630000  1
  C  C233  1  0.38380000  0.13840000  0.40480000  1
  C  C234  1  0.18760000  0.18160000  0.26610000  1
  C  C235  1  0.92020000  0.96976000  0.94768000  1
  C  C236  1  0.92020000  0.93710000  0.89140000  1
  C  C237  1  0.76970000  0.30200000  0.26220000  1
  C  C238  1  0.74880000  0.30200000  0.20460000  1
  C  C239  1  0.78480000  0.33650000  0.16470000  1
  C  C240  1  0.84200000  0.37100000  0.18260000  1
  C  C241  1  0.86290000  0.37100000  0.24010000  1
  C  C242  1  0.82670000  0.33630000  0.28030000  1
  C  C243  1  0.88380000  0.40480000  0.13840000  1
  C  C244  1  0.68760000  0.26610000  0.18160000  1
  C  C245  1  0.92020000  0.03024000  0.05232000  1
  C  C246  1  0.92020000  0.06290000  0.10860000  1
  C  C247  1  0.76970000  0.69800000  0.73780000  1
  C  C248  1  0.74880000  0.69800000  0.79540000  1
  C  C249  1  0.78480000  0.66350000  0.83530000  1
  C  C250  1  0.84200000  0.62900000  0.81740000  1
  C  C251  1  0.86290000  0.62900000  0.75990000  1
  C  C252  1  0.82670000  0.66370000  0.71970000  1
  C  C253  1  0.88380000  0.59520000  0.86160000  1
  C  C254  1  0.68760000  0.73390000  0.81840000  1
  C  C255  1  0.26970000  0.73780000  0.30200000  1
  C  C256  1  0.24880000  0.79540000  0.30200000  1
  C  C257  1  0.28480000  0.83530000  0.33650000  1
  C  C258  1  0.34200000  0.81740000  0.37100000  1
  C  C259  1  0.36290000  0.75990000  0.37100000  1
  C  C260  1  0.32670000  0.71970000  0.33630000  1
  C  C261  1  0.38380000  0.86160000  0.40480000  1
  C  C262  1  0.18760000  0.81840000  0.26610000  1
  C  C263  1  0.26970000  0.26220000  0.69800000  1
  C  C264  1  0.24880000  0.20460000  0.69800000  1
  C  C265  1  0.28480000  0.16470000  0.66350000  1
  C  C266  1  0.34200000  0.18260000  0.62900000  1
  C  C267  1  0.36290000  0.24010000  0.62900000  1
  C  C268  1  0.32670000  0.28030000  0.66370000  1
  C  C269  1  0.38380000  0.13840000  0.59520000  1
  C  C270  1  0.18760000  0.18160000  0.73390000  1
  C  C271  1  0.23030000  0.69800000  0.26220000  1
  C  C272  1  0.25120000  0.69800000  0.20460000  1
  C  C273  1  0.21520000  0.66350000  0.16470000  1
  C  C274  1  0.15800000  0.62900000  0.18260000  1
  C  C275  1  0.13710000  0.62900000  0.24010000  1
  C  C276  1  0.17330000  0.66370000  0.28030000  1
  C  C277  1  0.11620000  0.59520000  0.13840000  1
  C  C278  1  0.14710000  0.33870000  0.65790000  1
  C  C279  1  0.23030000  0.30200000  0.73780000  1
  C  C280  1  0.25120000  0.30200000  0.79540000  1
  C  C281  1  0.21520000  0.33650000  0.83530000  1
  C  C282  1  0.15800000  0.37100000  0.81740000  1
  C  C283  1  0.13710000  0.37100000  0.75990000  1
  C  C284  1  0.17330000  0.33630000  0.71970000  1
  C  C285  1  0.11620000  0.40480000  0.86160000  1
  C  C286  1  0.14710000  0.66130000  0.34210000  1
  C  C287  1  0.57980000  0.94768000  0.96976000  1
  C  C288  1  0.57980000  0.89140000  0.93710000  1
  C  C289  1  0.73030000  0.26220000  0.30200000  1
  C  C290  1  0.75120000  0.20460000  0.30200000  1
  C  C291  1  0.71520000  0.16470000  0.33650000  1
  C  C292  1  0.65800000  0.18260000  0.37100000  1
  C  C293  1  0.63710000  0.24010000  0.37100000  1
  C  C294  1  0.67330000  0.28030000  0.33630000  1
  C  C295  1  0.61620000  0.13840000  0.40480000  1
  C  C296  1  0.64710000  0.65790000  0.66130000  1
  C  C297  1  0.57980000  0.05232000  0.03024000  1
  C  C298  1  0.57980000  0.10860000  0.06290000  1
  C  C299  1  0.73030000  0.73780000  0.69800000  1
  C  C300  1  0.75120000  0.79540000  0.69800000  1
  C  C301  1  0.71520000  0.83530000  0.66350000  1
  C  C302  1  0.65800000  0.81740000  0.62900000  1
  C  C303  1  0.63710000  0.75990000  0.62900000  1
  C  C304  1  0.67330000  0.71970000  0.66370000  1
  C  C305  1  0.61620000  0.86160000  0.59520000  1
  C  C306  1  0.64710000  0.34210000  0.33870000  1
  C  C307  1  0.77060000  0.64080000  0.00000000  1
  C  C308  1  0.69010000  0.64030000  0.00000000  1
  C  C309  1  0.65310000  0.58800000  0.00000000  1
  C  C310  1  0.57820000  0.58790000  0.00000000  1
  C  C311  1  0.54050000  0.64000000  0.00000000  1
  C  C312  1  0.57810000  0.69220000  0.00000000  1
  C  C313  1  0.65270000  0.69240000  0.00000000  1
  C  C314  1  0.46120000  0.74880000  0.00000000  1
  C  C315  1  0.52570000  0.00000000  0.30910000  1
  C  C316  1  0.54100000  0.00000000  0.24460000  1
  C  C317  1  0.61200000  1.00000000  0.22500000  1
  C  C318  1  0.62670000  1.00000000  0.16580000  1
  C  C319  1  0.57060000  0.00000000  0.12600000  1
  C  C320  1  0.57980000  0.00000000  0.06060000  1
  C  C321  1  0.27060000  0.00000000  0.35920000  1
  C  C322  1  0.19010000  0.00000000  0.35970000  1
  C  C323  1  0.15310000  1.00000000  0.41200000  1
  C  C324  1  0.07820000  1.00000000  0.41210000  1
  C  C325  1  0.04050000  0.00000000  0.36000000  1
  C  C326  1  0.07810000  1.00000000  0.30780000  1
  C  C327  1  0.15270000  0.00000000  0.30760000  1
  C  C328  1  0.48510000  1.00000000  0.20460000  1
  C  C329  1  0.96120000  0.00000000  0.25120000  1
  C  C330  1  0.52570000  1.00000000  0.69090000  1
  C  C331  1  0.54100000  1.00000000  0.75540000  1
  C  C332  1  0.61200000  0.00000000  0.77500000  1
  C  C333  1  0.62670000  0.00000000  0.83420000  1
  C  C334  1  0.57060000  0.00000000  0.87400000  1
  C  C335  1  0.57980000  0.00000000  0.93940000  1
  C  C336  1  0.48510000  0.00000000  0.79540000  1
  C  C337  1  0.97430000  0.69090000  0.00000000  1
  C  C338  1  0.95900000  0.75540000  0.00000000  1
  C  C339  1  0.88800000  0.77500000  0.00000000  1
  C  C340  1  0.87330000  0.83420000  0.00000000  1
  C  C341  1  0.92940000  0.87400000  0.00000000  1
  C  C342  1  0.92020000  0.93940000  0.00000000  1
  C  C343  1  0.22940000  0.64080000  0.00000000  1
  C  C344  1  0.30990000  0.64030000  0.00000000  1
  C  C345  1  0.34690000  0.58800000  0.00000000  1
  C  C346  1  0.42180000  0.58790000  0.00000000  1
  C  C347  1  0.45950000  0.64000000  0.00000000  1
  C  C348  1  0.42190000  0.69220000  0.00000000  1
  C  C349  1  0.34730000  0.69240000  0.00000000  1
  C  C350  1  0.01490000  0.79540000  0.00000000  1
  C  C351  1  0.53900000  0.53140000  0.00000000  1
  C  C352  1  0.97430000  0.30910000  0.00000000  1
  C  C353  1  0.95900000  0.24460000  0.00000000  1
  C  C354  1  0.88800000  0.22500000  0.00000000  1
  C  C355  1  0.87330000  0.16580000  0.00000000  1
  C  C356  1  0.92940000  0.12600000  0.00000000  1
  C  C357  1  0.92020000  0.06060000  0.00000000  1
  C  C358  1  0.01490000  0.20460000  0.00000000  1
  C  C359  1  0.72940000  0.00000000  0.35920000  1
  C  C360  1  0.80990000  0.00000000  0.35970000  1
  C  C361  1  0.84690000  1.00000000  0.41200000  1
  C  C362  1  0.92180000  1.00000000  0.41210000  1
  C  C363  1  0.95950000  0.00000000  0.36000000  1
  C  C364  1  0.92190000  1.00000000  0.30780000  1
  C  C365  1  0.84730000  0.00000000  0.30760000  1
  C  C366  1  0.03900000  0.00000000  0.46860000  1
  C  C367  1  0.00000000  0.14540000  0.00000000  1
  C  C368  1  0.00000000  0.85460000  0.00000000  1
  C  C369  1  0.50000000  0.00000000  0.14540000  1
  C  C370  1  0.50000000  1.00000000  0.85460000  1
  N  N371  1  0.62430000  0.83790000  0.06930000  1
  N  N372  1  0.68940000  0.83810000  0.07330000  1
  N  N373  1  0.74520000  0.84380000  0.09400000  1
  N  N374  1  0.62430000  0.16210000  0.93070000  1
  N  N375  1  0.68940000  0.16190000  0.92670000  1
  N  N376  1  0.74520000  0.15620000  0.90600000  1
  N  N377  1  0.87570000  0.93070000  0.16210000  1
  N  N378  1  0.81060000  0.92670000  0.16190000  1
  N  N379  1  0.75480000  0.90600000  0.15620000  1
  N  N380  1  0.87570000  0.06930000  0.83790000  1
  N  N381  1  0.81060000  0.07330000  0.83810000  1
  N  N382  1  0.75480000  0.09400000  0.84380000  1
  N  N383  1  0.87570000  0.93070000  0.83790000  1
  N  N384  1  0.81060000  0.92670000  0.83810000  1
  N  N385  1  0.75480000  0.90600000  0.84380000  1
  N  N386  1  0.87570000  0.06930000  0.16210000  1
  N  N387  1  0.81060000  0.07330000  0.16190000  1
  N  N388  1  0.75480000  0.09400000  0.15620000  1
  N  N389  1  0.62430000  0.83790000  0.93070000  1
  N  N390  1  0.68940000  0.83810000  0.92670000  1
  N  N391  1  0.74520000  0.84380000  0.90600000  1
  N  N392  1  0.62430000  0.16210000  0.06930000  1
  N  N393  1  0.68940000  0.16190000  0.07330000  1
  N  N394  1  0.74520000  0.15620000  0.09400000  1
  O  O395  1  0.07250000  0.55840000  0.84370000  1
  O  O396  1  0.13110000  0.60680000  0.91360000  1
  O  O397  1  0.07250000  0.44160000  0.15630000  1
  O  O398  1  0.13110000  0.39320000  0.08640000  1
  O  O399  1  0.57250000  0.15630000  0.55840000  1
  O  O400  1  0.63110000  0.08640000  0.60680000  1
  O  O401  1  0.57250000  0.84370000  0.44160000  1
  O  O402  1  0.63110000  0.91360000  0.39320000  1
  O  O403  1  0.92750000  0.44160000  0.84370000  1
  O  O404  1  0.86890000  0.39320000  0.91360000  1
  O  O405  1  0.92750000  0.55840000  0.15630000  1
  O  O406  1  0.86890000  0.60680000  0.08640000  1
  O  O407  1  0.42750000  0.84370000  0.55840000  1
  O  O408  1  0.36890000  0.91360000  0.60680000  1
  O  O409  1  0.42750000  0.15630000  0.44160000  1
  O  O410  1  0.36890000  0.08640000  0.39320000  1
  O  O411  1  0.92750000  0.44160000  0.15630000  1
  O  O412  1  0.86890000  0.39320000  0.08640000  1
  O  O413  1  0.92750000  0.55840000  0.84370000  1
  O  O414  1  0.86890000  0.60680000  0.91360000  1
  O  O415  1  0.42750000  0.84370000  0.44160000  1
  O  O416  1  0.36890000  0.91360000  0.39320000  1
  O  O417  1  0.42750000  0.15630000  0.55840000  1
  O  O418  1  0.36890000  0.08640000  0.60680000  1
  O  O419  1  0.07250000  0.55840000  0.15630000  1
  O  O420  1  0.13110000  0.60680000  0.08640000  1
  O  O421  1  0.07250000  0.44160000  0.84370000  1
  O  O422  1  0.13110000  0.39320000  0.91360000  1
  O  O423  1  0.57250000  0.15630000  0.44160000  1
  O  O424  1  0.63110000  0.08640000  0.39320000  1
  O  O425  1  0.57250000  0.84370000  0.55840000  1
  O  O426  1  0.63110000  0.91360000  0.60680000  1
  O  O427  1  0.80100000  0.41060000  0.00000000  1
  O  O428  1  0.80100000  0.58940000  0.00000000  1
  O  O429  1  0.79320000  0.69440000  0.00000000  1
  O  O430  1  0.77950000  0.55220000  0.00000000  1
  O  O431  1  0.58920000  0.00000000  0.33380000  1
  O  O432  1  0.45700000  1.00000000  0.32380000  1
  O  O433  1  0.30100000  1.00000000  0.41060000  1
  O  O434  1  0.29320000  0.00000000  0.30560000  1
  O  O435  1  0.58920000  1.00000000  0.66620000  1
  O  O436  1  0.45700000  0.00000000  0.67620000  1
  O  O437  1  0.30100000  0.00000000  0.58940000  1
  O  O438  1  0.91080000  0.66620000  0.00000000  1
  O  O439  1  0.04300000  0.67620000  0.00000000  1
  O  O440  1  0.19900000  0.58940000  0.00000000  1
  O  O441  1  0.20680000  0.69440000  0.00000000  1
  O  O442  1  0.22050000  0.55220000  0.00000000  1
  O  O443  1  0.91080000  0.33380000  0.00000000  1
  O  O444  1  0.04300000  0.32380000  0.00000000  1
  O  O445  1  0.19900000  0.41060000  0.00000000  1
  O  O446  1  0.69900000  1.00000000  0.41060000  1
  O  O447  1  0.70680000  0.00000000  0.30560000  1
  O  O448  1  0.69900000  0.00000000  0.58940000  1
  O  O449  1  0.00000000  0.42420000  0.94710000  1
  O  O450  1  0.00000000  0.57580000  0.05290000  1
  O  O451  1  0.50000000  0.05290000  0.42420000  1
  O  O452  1  0.50000000  0.94710000  0.57580000  1
  O  O453  1  0.00000000  0.57580000  0.94710000  1
  O  O454  1  1.00000000  0.42420000  0.05290000  1
  O  O455  1  0.50000000  0.94710000  0.42420000  1
  O  O456  1  0.50000000  0.05290000  0.57580000  1
  O  O457  1  0.90520000  0.50000000  0.94820000  1
  O  O458  1  0.90520000  0.50000000  0.05180000  1
  O  O459  1  0.40520000  0.05180000  0.50000000  1
  O  O460  1  0.40520000  0.94820000  0.50000000  1
  O  O461  1  0.09480000  0.50000000  0.94820000  1
  O  O462  1  0.09480000  0.50000000  0.05180000  1
  O  O463  1  0.59480000  0.94820000  0.50000000  1
  O  O464  1  0.59480000  0.05180000  0.50000000  1
