# generated using pymatgen
data_Zr3H15C12N3O16
_symmetry_space_group_name_H-M   'P 1'
_cell_length_a   17.82600000
_cell_length_b   17.82600000
_cell_length_c   17.82600000
_cell_angle_alpha   90.00000000
_cell_angle_beta   90.00000000
_cell_angle_gamma   90.00000000
_symmetry_Int_Tables_number   1
_chemical_formula_structural   Zr3H15C12N3O16
_chemical_formula_sum   'Zr24 H120 C96 N24 O128'
_cell_volume   5664.50163598
_cell_formula_units_Z   8
loop_
 _symmetry_equiv_pos_site_id
 _symmetry_equiv_pos_as_xyz
  1  'x, y, z'
loop_
 _atom_site_type_symbol
 _atom_site_label
 _atom_site_symmetry_multiplicity
 _atom_site_fract_x
 _atom_site_fract_y
 _atom_site_fract_z
 _atom_site_occupancy
  Zr  Zr0  1  0.48943000  0.51118000  0.63816000  1
  Zr  Zr1  1  0.01057000  0.98882000  0.63816000  1
  Zr  Zr2  1  0.01057000  0.51118000  0.86184000  1
  Zr  Zr3  1  0.48943000  0.98882000  0.86184000  1
  Zr  Zr4  1  0.63816000  0.48943000  0.51118000  1
  Zr  Zr5  1  0.63816000  0.01057000  0.98882000  1
  Zr  Zr6  1  0.86184000  0.01057000  0.51118000  1
  Zr  Zr7  1  0.86184000  0.48943000  0.98882000  1
  Zr  Zr8  1  0.51118000  0.63816000  0.48943000  1
  Zr  Zr9  1  0.98882000  0.63816000  0.01057000  1
  Zr  Zr10  1  0.51118000  0.86184000  0.01057000  1
  Zr  Zr11  1  0.98882000  0.86184000  0.48943000  1
  Zr  Zr12  1  0.51057000  0.48882000  0.36184000  1
  Zr  Zr13  1  0.98943000  0.01118000  0.36184000  1
  Zr  Zr14  1  0.98943000  0.48882000  0.13816000  1
  Zr  Zr15  1  0.51057000  0.01118000  0.13816000  1
  Zr  Zr16  1  0.36184000  0.51057000  0.48882000  1
  Zr  Zr17  1  0.36184000  0.98943000  0.01118000  1
  Zr  Zr18  1  0.13816000  0.98943000  0.48882000  1
  Zr  Zr19  1  0.13816000  0.51057000  0.01118000  1
  Zr  Zr20  1  0.48882000  0.36184000  0.51057000  1
  Zr  Zr21  1  0.01118000  0.36184000  0.98943000  1
  Zr  Zr22  1  0.48882000  0.13816000  0.98943000  1
  Zr  Zr23  1  0.01118000  0.13816000  0.51057000  1
  H  H24  1  0.69639000  0.45943000  0.79026000  1
  H  H25  1  0.16367000  0.54456000  0.62823000  1
  H  H26  1  0.21171000  0.46810000  0.69640000  1
  H  H27  1  0.18778000  0.61035000  0.67340000  1
  H  H28  1  0.69652000  0.54924000  0.79083000  1
  H  H29  1  0.80361000  0.04057000  0.79026000  1
  H  H30  1  0.36691000  0.94408000  0.70495000  1
  H  H31  1  0.28829000  0.03190000  0.69640000  1
  H  H32  1  0.31222000  0.88965000  0.67340000  1
  H  H33  1  0.80348000  0.95076000  0.79083000  1
  H  H34  1  0.86902000  0.45584000  0.67120000  1
  H  H35  1  0.79171000  0.44729000  0.64121000  1
  H  H36  1  0.29222000  0.46081000  0.80530000  1
  H  H37  1  0.80348000  0.54924000  0.70917000  1
  H  H38  1  0.21171000  0.03190000  0.80360000  1
  H  H39  1  0.63098000  0.04416000  0.67120000  1
  H  H40  1  0.70829000  0.05271000  0.64121000  1
  H  H41  1  0.20576000  0.94234000  0.80210000  1
  H  H42  1  0.69652000  0.95076000  0.70917000  1
  H  H43  1  0.70495000  0.13309000  0.55592000  1
  H  H44  1  0.69640000  0.21171000  0.46810000  1
  H  H45  1  0.82880000  0.63098000  0.45584000  1
  H  H46  1  0.85879000  0.70829000  0.44729000  1
  H  H47  1  0.67340000  0.18778000  0.61035000  1
  H  H48  1  0.79083000  0.69652000  0.54924000  1
  H  H49  1  0.79026000  0.80361000  0.04057000  1
  H  H50  1  0.69640000  0.28829000  0.03190000  1
  H  H51  1  0.69790000  0.29424000  0.94234000  1
  H  H52  1  0.79083000  0.80348000  0.95076000  1
  H  H53  1  0.70974000  0.80361000  0.45943000  1
  H  H54  1  0.80360000  0.28829000  0.46810000  1
  H  H55  1  0.80210000  0.29424000  0.55766000  1
  H  H56  1  0.70917000  0.80348000  0.54924000  1
  H  H57  1  0.79505000  0.13309000  0.94408000  1
  H  H58  1  0.80360000  0.21171000  0.03190000  1
  H  H59  1  0.67120000  0.63098000  0.04416000  1
  H  H60  1  0.64121000  0.70829000  0.05271000  1
  H  H61  1  0.82660000  0.18778000  0.88965000  1
  H  H62  1  0.70917000  0.69652000  0.95076000  1
  H  H63  1  0.45943000  0.79026000  0.69639000  1
  H  H64  1  0.46765000  0.62678000  0.17430000  1
  H  H65  1  0.45646000  0.70247000  0.14120000  1
  H  H66  1  0.55766000  0.69790000  0.20576000  1
  H  H67  1  0.54924000  0.79083000  0.69652000  1
  H  H68  1  0.94408000  0.70495000  0.36691000  1
  H  H69  1  0.95544000  0.62823000  0.33633000  1
  H  H70  1  0.03190000  0.69640000  0.28829000  1
  H  H71  1  0.04416000  0.82880000  0.86902000  1
  H  H72  1  0.05271000  0.85879000  0.79171000  1
  H  H73  1  0.95076000  0.79083000  0.80348000  1
  H  H74  1  0.46810000  0.80360000  0.28829000  1
  H  H75  1  0.39916000  0.70418000  0.81756000  1
  H  H76  1  0.44729000  0.64121000  0.79171000  1
  H  H77  1  0.55766000  0.80210000  0.29424000  1
  H  H78  1  0.54924000  0.70917000  0.80348000  1
  H  H79  1  0.04057000  0.70974000  0.69639000  1
  H  H80  1  0.03190000  0.80360000  0.21171000  1
  H  H81  1  0.94234000  0.80210000  0.20576000  1
  H  H82  1  0.95076000  0.70917000  0.69652000  1
  H  H83  1  0.30361000  0.54057000  0.20974000  1
  H  H84  1  0.83633000  0.45544000  0.37177000  1
  H  H85  1  0.78829000  0.53190000  0.30360000  1
  H  H86  1  0.81222000  0.38965000  0.32660000  1
  H  H87  1  0.30348000  0.45076000  0.20917000  1
  H  H88  1  0.18244000  0.89916000  0.20418000  1
  H  H89  1  0.13098000  0.95584000  0.17120000  1
  H  H90  1  0.67430000  0.96765000  0.37322000  1
  H  H91  1  0.70569000  0.90972000  0.32215000  1
  H  H92  1  0.70576000  0.05766000  0.30210000  1
  H  H93  1  0.19652000  0.04924000  0.20917000  1
  H  H94  1  0.13098000  0.54416000  0.32880000  1
  H  H95  1  0.20829000  0.55271000  0.35879000  1
  H  H96  1  0.70087000  0.43568000  0.19644000  1
  H  H97  1  0.19652000  0.45076000  0.29083000  1
  H  H98  1  0.30361000  0.95943000  0.29026000  1
  H  H99  1  0.78829000  0.96810000  0.19640000  1
  H  H100  1  0.79424000  0.05766000  0.19790000  1
  H  H101  1  0.30348000  0.04924000  0.29083000  1
  H  H102  1  0.30360000  0.78829000  0.53190000  1
  H  H103  1  0.20418000  0.31756000  0.60084000  1
  H  H104  1  0.14121000  0.29171000  0.55271000  1
  H  H105  1  0.30210000  0.79424000  0.44234000  1
  H  H106  1  0.20917000  0.30348000  0.45076000  1
  H  H107  1  0.29505000  0.63309000  0.05592000  1
  H  H108  1  0.37177000  0.66367000  0.04456000  1
  H  H109  1  0.30360000  0.71171000  0.96810000  1
  H  H110  1  0.20418000  0.18244000  0.89916000  1
  H  H111  1  0.17120000  0.13098000  0.95584000  1
  H  H112  1  0.20917000  0.19652000  0.04924000  1
  H  H113  1  0.29026000  0.19639000  0.54057000  1
  H  H114  1  0.20495000  0.63309000  0.44408000  1
  H  H115  1  0.19640000  0.71171000  0.53190000  1
  H  H116  1  0.17340000  0.68778000  0.38965000  1
  H  H117  1  0.29083000  0.19652000  0.45076000  1
  H  H118  1  0.29026000  0.30361000  0.95943000  1
  H  H119  1  0.19640000  0.78829000  0.96810000  1
  H  H120  1  0.19790000  0.79424000  0.05766000  1
  H  H121  1  0.29083000  0.30348000  0.04924000  1
  H  H122  1  0.53190000  0.30360000  0.78829000  1
  H  H123  1  0.54416000  0.17120000  0.36902000  1
  H  H124  1  0.55271000  0.14121000  0.29171000  1
  H  H125  1  0.44234000  0.30210000  0.79424000  1
  H  H126  1  0.45076000  0.20917000  0.30348000  1
  H  H127  1  0.95943000  0.20974000  0.19639000  1
  H  H128  1  0.96810000  0.30360000  0.71171000  1
  H  H129  1  0.95584000  0.17120000  0.13098000  1
  H  H130  1  0.94729000  0.14121000  0.20829000  1
  H  H131  1  0.05766000  0.30210000  0.70576000  1
  H  H132  1  0.54057000  0.29026000  0.19639000  1
  H  H133  1  0.44408000  0.20495000  0.63309000  1
  H  H134  1  0.45544000  0.12823000  0.66367000  1
  H  H135  1  0.53190000  0.19640000  0.71171000  1
  H  H136  1  0.45076000  0.29083000  0.19652000  1
  H  H137  1  0.95943000  0.29026000  0.30361000  1
  H  H138  1  0.04456000  0.12823000  0.83633000  1
  H  H139  1  0.96810000  0.19640000  0.78829000  1
  H  H140  1  0.11035000  0.17340000  0.81222000  1
  H  H141  1  0.04924000  0.29083000  0.30348000  1
  H  H142  1  0.70793000  0.53954000  0.19579000  1
  H  H143  1  0.29902000  0.56465000  0.80246000  1
  C  C144  1  0.65801000  0.50500000  0.68922000  1
  C  C145  1  0.70800000  0.50450000  0.75998000  1
  C  C146  1  0.30883000  0.52020000  0.65648000  1
  C  C147  1  0.23948000  0.51470000  0.70815000  1
  C  C148  1  0.84199000  0.99500000  0.68922000  1
  C  C149  1  0.79200000  0.99550000  0.75998000  1
  C  C150  1  0.19117000  0.97980000  0.65648000  1
  C  C151  1  0.26052000  0.98530000  0.70815000  1
  C  C152  1  0.84199000  0.50500000  0.81078000  1
  C  C153  1  0.79200000  0.50450000  0.74002000  1
  C  C154  1  0.19117000  0.52020000  0.84352000  1
  C  C155  1  0.26052000  0.51470000  0.79185000  1
  C  C156  1  0.65801000  0.99500000  0.81078000  1
  C  C157  1  0.70800000  0.99550000  0.74002000  1
  C  C158  1  0.30883000  0.97980000  0.84352000  1
  C  C159  1  0.23948000  0.98530000  0.79185000  1
  C  C160  1  0.68922000  0.65801000  0.50500000  1
  C  C161  1  0.75998000  0.70800000  0.50450000  1
  C  C162  1  0.65648000  0.30883000  0.52020000  1
  C  C163  1  0.70815000  0.23948000  0.51470000  1
  C  C164  1  0.68922000  0.84199000  0.99500000  1
  C  C165  1  0.75998000  0.79200000  0.99550000  1
  C  C166  1  0.65648000  0.19117000  0.97980000  1
  C  C167  1  0.70815000  0.26052000  0.98530000  1
  C  C168  1  0.81078000  0.84199000  0.50500000  1
  C  C169  1  0.74002000  0.79200000  0.50450000  1
  C  C170  1  0.84352000  0.19117000  0.52020000  1
  C  C171  1  0.79185000  0.26052000  0.51470000  1
  C  C172  1  0.81078000  0.65801000  0.99500000  1
  C  C173  1  0.74002000  0.70800000  0.99550000  1
  C  C174  1  0.84352000  0.30883000  0.97980000  1
  C  C175  1  0.79185000  0.23948000  0.98530000  1
  C  C176  1  0.50500000  0.68922000  0.65801000  1
  C  C177  1  0.50450000  0.75998000  0.70800000  1
  C  C178  1  0.52020000  0.65648000  0.30883000  1
  C  C179  1  0.51470000  0.70815000  0.23948000  1
  C  C180  1  0.99500000  0.68922000  0.84199000  1
  C  C181  1  0.99550000  0.75998000  0.79200000  1
  C  C182  1  0.97980000  0.65648000  0.19117000  1
  C  C183  1  0.98530000  0.70815000  0.26052000  1
  C  C184  1  0.50500000  0.81078000  0.84199000  1
  C  C185  1  0.50450000  0.74002000  0.79200000  1
  C  C186  1  0.52020000  0.84352000  0.19117000  1
  C  C187  1  0.51470000  0.79185000  0.26052000  1
  C  C188  1  0.99500000  0.81078000  0.65801000  1
  C  C189  1  0.99550000  0.74002000  0.70800000  1
  C  C190  1  0.97980000  0.84352000  0.30883000  1
  C  C191  1  0.98530000  0.79185000  0.23948000  1
  C  C192  1  0.34199000  0.49500000  0.31078000  1
  C  C193  1  0.29200000  0.49550000  0.24002000  1
  C  C194  1  0.69117000  0.47980000  0.34352000  1
  C  C195  1  0.76052000  0.48530000  0.29185000  1
  C  C196  1  0.15801000  0.00500000  0.31078000  1
  C  C197  1  0.20800000  0.00450000  0.24002000  1
  C  C198  1  0.80883000  0.02020000  0.34352000  1
  C  C199  1  0.73948000  0.01470000  0.29185000  1
  C  C200  1  0.15801000  0.49500000  0.18922000  1
  C  C201  1  0.20800000  0.49550000  0.25998000  1
  C  C202  1  0.80883000  0.47980000  0.15648000  1
  C  C203  1  0.73948000  0.48530000  0.20815000  1
  C  C204  1  0.34199000  0.00500000  0.18922000  1
  C  C205  1  0.29200000  0.00450000  0.25998000  1
  C  C206  1  0.69117000  0.02020000  0.15648000  1
  C  C207  1  0.76052000  0.01470000  0.20815000  1
  C  C208  1  0.31078000  0.34199000  0.49500000  1
  C  C209  1  0.24002000  0.29200000  0.49550000  1
  C  C210  1  0.34352000  0.69117000  0.47980000  1
  C  C211  1  0.29185000  0.76052000  0.48530000  1
  C  C212  1  0.31078000  0.15801000  0.00500000  1
  C  C213  1  0.24002000  0.20800000  0.00450000  1
  C  C214  1  0.34352000  0.80883000  0.02020000  1
  C  C215  1  0.29185000  0.73948000  0.01470000  1
  C  C216  1  0.18922000  0.15801000  0.49500000  1
  C  C217  1  0.25998000  0.20800000  0.49550000  1
  C  C218  1  0.15648000  0.80883000  0.47980000  1
  C  C219  1  0.20815000  0.73948000  0.48530000  1
  C  C220  1  0.18922000  0.34199000  0.00500000  1
  C  C221  1  0.25998000  0.29200000  0.00450000  1
  C  C222  1  0.15648000  0.69117000  0.02020000  1
  C  C223  1  0.20815000  0.76052000  0.01470000  1
  C  C224  1  0.49500000  0.31078000  0.34199000  1
  C  C225  1  0.49550000  0.24002000  0.29200000  1
  C  C226  1  0.47980000  0.34352000  0.69117000  1
  C  C227  1  0.48530000  0.29185000  0.76052000  1
  C  C228  1  0.00500000  0.31078000  0.15801000  1
  C  C229  1  0.00450000  0.24002000  0.20800000  1
  C  C230  1  0.02020000  0.34352000  0.80883000  1
  C  C231  1  0.01470000  0.29185000  0.73948000  1
  C  C232  1  0.49500000  0.18922000  0.15801000  1
  C  C233  1  0.49550000  0.25998000  0.20800000  1
  C  C234  1  0.47980000  0.15648000  0.80883000  1
  C  C235  1  0.48530000  0.20815000  0.73948000  1
  C  C236  1  0.00500000  0.18922000  0.34199000  1
  C  C237  1  0.00450000  0.25998000  0.29200000  1
  C  C238  1  0.02020000  0.15648000  0.69117000  1
  C  C239  1  0.01470000  0.20815000  0.76052000  1
  N  N240  1  0.17430000  0.56110000  0.67530000  1
  N  N241  1  0.32570000  0.93890000  0.67530000  1
  N  N242  1  0.82050000  0.44570000  0.68330000  1
  N  N243  1  0.67950000  0.05430000  0.68330000  1
  N  N244  1  0.67530000  0.17430000  0.56110000  1
  N  N245  1  0.81670000  0.67950000  0.44570000  1
  N  N246  1  0.82470000  0.17430000  0.93890000  1
  N  N247  1  0.68330000  0.67950000  0.05430000  1
  N  N248  1  0.45610000  0.67540000  0.18450000  1
  N  N249  1  0.93890000  0.67530000  0.32570000  1
  N  N250  1  0.05430000  0.81670000  0.82050000  1
  N  N251  1  0.44570000  0.68330000  0.82050000  1
  N  N252  1  0.82570000  0.43890000  0.32470000  1
  N  N253  1  0.17950000  0.94570000  0.18330000  1
  N  N254  1  0.68450000  0.95610000  0.32460000  1
  N  N255  1  0.17950000  0.55430000  0.31670000  1
  N  N256  1  0.18330000  0.32050000  0.55430000  1
  N  N257  1  0.32470000  0.67430000  0.06110000  1
  N  N258  1  0.18330000  0.17950000  0.94570000  1
  N  N259  1  0.17530000  0.67430000  0.43890000  1
  N  N260  1  0.55430000  0.18330000  0.32050000  1
  N  N261  1  0.94570000  0.18330000  0.17950000  1
  N  N262  1  0.43890000  0.17530000  0.67430000  1
  N  N263  1  0.06110000  0.17530000  0.82570000  1
  O  O264  1  0.59170000  0.51310000  0.71420000  1
  O  O265  1  0.69120000  0.49350000  0.62660000  1
  O  O266  1  0.37150000  0.52040000  0.69090000  1
  O  O267  1  0.28570000  0.52180000  0.58880000  1
  O  O268  1  0.43080000  0.58110000  0.55630000  1
  O  O269  1  0.90830000  0.98690000  0.71420000  1
  O  O270  1  0.80880000  0.00650000  0.62660000  1
  O  O271  1  0.12850000  0.97960000  0.69090000  1
  O  O272  1  0.21430000  0.97820000  0.58880000  1
  O  O273  1  0.06920000  0.91890000  0.55630000  1
  O  O274  1  0.90830000  0.51310000  0.78580000  1
  O  O275  1  0.80880000  0.49350000  0.87340000  1
  O  O276  1  0.12850000  0.52040000  0.80910000  1
  O  O277  1  0.21430000  0.52180000  0.91120000  1
  O  O278  1  0.06920000  0.58110000  0.94370000  1
  O  O279  1  0.59170000  0.98690000  0.78580000  1
  O  O280  1  0.69120000  0.00650000  0.87340000  1
  O  O281  1  0.37150000  0.97960000  0.80910000  1
  O  O282  1  0.28570000  0.97820000  0.91120000  1
  O  O283  1  0.43080000  0.91890000  0.94370000  1
  O  O284  1  0.71420000  0.59170000  0.51310000  1
  O  O285  1  0.62660000  0.69120000  0.49350000  1
  O  O286  1  0.69090000  0.37150000  0.52040000  1
  O  O287  1  0.58880000  0.28570000  0.52180000  1
  O  O288  1  0.55630000  0.43080000  0.58110000  1
  O  O289  1  0.71420000  0.90830000  0.98690000  1
  O  O290  1  0.62660000  0.80880000  0.00650000  1
  O  O291  1  0.69090000  0.12850000  0.97960000  1
  O  O292  1  0.58880000  0.21430000  0.97820000  1
  O  O293  1  0.55630000  0.06920000  0.91890000  1
  O  O294  1  0.78580000  0.90830000  0.51310000  1
  O  O295  1  0.87340000  0.80880000  0.49350000  1
  O  O296  1  0.80910000  0.12850000  0.52040000  1
  O  O297  1  0.91120000  0.21430000  0.52180000  1
  O  O298  1  0.94370000  0.06920000  0.58110000  1
  O  O299  1  0.78580000  0.59170000  0.98690000  1
  O  O300  1  0.87340000  0.69120000  0.00650000  1
  O  O301  1  0.80910000  0.37150000  0.97960000  1
  O  O302  1  0.91120000  0.28570000  0.97820000  1
  O  O303  1  0.94370000  0.43080000  0.91890000  1
  O  O304  1  0.51310000  0.71420000  0.59170000  1
  O  O305  1  0.49350000  0.62660000  0.69120000  1
  O  O306  1  0.52040000  0.69090000  0.37150000  1
  O  O307  1  0.52180000  0.58880000  0.28570000  1
  O  O308  1  0.58110000  0.55630000  0.43080000  1
  O  O309  1  0.98690000  0.71420000  0.90830000  1
  O  O310  1  0.00650000  0.62660000  0.80880000  1
  O  O311  1  0.97960000  0.69090000  0.12850000  1
  O  O312  1  0.97820000  0.58880000  0.21430000  1
  O  O313  1  0.91890000  0.55630000  0.06920000  1
  O  O314  1  0.51310000  0.78580000  0.90830000  1
  O  O315  1  0.49350000  0.87340000  0.80880000  1
  O  O316  1  0.52040000  0.80910000  0.12850000  1
  O  O317  1  0.52180000  0.91120000  0.21430000  1
  O  O318  1  0.58110000  0.94370000  0.06920000  1
  O  O319  1  0.98690000  0.78580000  0.59170000  1
  O  O320  1  0.00650000  0.87340000  0.69120000  1
  O  O321  1  0.97960000  0.80910000  0.37150000  1
  O  O322  1  0.97820000  0.91120000  0.28570000  1
  O  O323  1  0.91890000  0.94370000  0.43080000  1
  O  O324  1  0.40830000  0.48690000  0.28580000  1
  O  O325  1  0.30880000  0.50650000  0.37340000  1
  O  O326  1  0.62850000  0.47960000  0.30910000  1
  O  O327  1  0.71430000  0.47820000  0.41120000  1
  O  O328  1  0.56920000  0.41890000  0.44370000  1
  O  O329  1  0.09170000  0.01310000  0.28580000  1
  O  O330  1  0.19120000  0.99350000  0.37340000  1
  O  O331  1  0.87150000  0.02040000  0.30910000  1
  O  O332  1  0.78570000  0.02180000  0.41120000  1
  O  O333  1  0.93080000  0.08110000  0.44370000  1
  O  O334  1  0.09170000  0.48690000  0.21420000  1
  O  O335  1  0.19120000  0.50650000  0.12660000  1
  O  O336  1  0.87150000  0.47960000  0.19090000  1
  O  O337  1  0.78570000  0.47820000  0.08880000  1
  O  O338  1  0.93080000  0.41890000  0.05630000  1
  O  O339  1  0.40830000  0.01310000  0.21420000  1
  O  O340  1  0.30880000  0.99350000  0.12660000  1
  O  O341  1  0.62850000  0.02040000  0.19090000  1
  O  O342  1  0.71430000  0.02180000  0.08880000  1
  O  O343  1  0.56920000  0.08110000  0.05630000  1
  O  O344  1  0.28580000  0.40830000  0.48690000  1
  O  O345  1  0.37340000  0.30880000  0.50650000  1
  O  O346  1  0.30910000  0.62850000  0.47960000  1
  O  O347  1  0.41120000  0.71430000  0.47820000  1
  O  O348  1  0.44370000  0.56920000  0.41890000  1
  O  O349  1  0.28580000  0.09170000  0.01310000  1
  O  O350  1  0.37340000  0.19120000  0.99350000  1
  O  O351  1  0.30910000  0.87150000  0.02040000  1
  O  O352  1  0.41120000  0.78570000  0.02180000  1
  O  O353  1  0.44370000  0.93080000  0.08110000  1
  O  O354  1  0.21420000  0.09170000  0.48690000  1
  O  O355  1  0.12660000  0.19120000  0.50650000  1
  O  O356  1  0.19090000  0.87150000  0.47960000  1
  O  O357  1  0.08880000  0.78570000  0.47820000  1
  O  O358  1  0.05630000  0.93080000  0.41890000  1
  O  O359  1  0.21420000  0.40830000  0.01310000  1
  O  O360  1  0.12660000  0.30880000  0.99350000  1
  O  O361  1  0.19090000  0.62850000  0.02040000  1
  O  O362  1  0.08880000  0.71430000  0.02180000  1
  O  O363  1  0.05630000  0.56920000  0.08110000  1
  O  O364  1  0.48690000  0.28580000  0.40830000  1
  O  O365  1  0.50650000  0.37340000  0.30880000  1
  O  O366  1  0.47960000  0.30910000  0.62850000  1
  O  O367  1  0.47820000  0.41120000  0.71430000  1
  O  O368  1  0.41890000  0.44370000  0.56920000  1
  O  O369  1  0.01310000  0.28580000  0.09170000  1
  O  O370  1  0.99350000  0.37340000  0.19120000  1
  O  O371  1  0.02040000  0.30910000  0.87150000  1
  O  O372  1  0.02180000  0.41120000  0.78570000  1
  O  O373  1  0.08110000  0.44370000  0.93080000  1
  O  O374  1  0.48690000  0.21420000  0.09170000  1
  O  O375  1  0.50650000  0.12660000  0.19120000  1
  O  O376  1  0.47960000  0.19090000  0.87150000  1
  O  O377  1  0.47820000  0.08880000  0.78570000  1
  O  O378  1  0.41890000  0.05630000  0.93080000  1
  O  O379  1  0.01310000  0.21420000  0.40830000  1
  O  O380  1  0.99350000  0.12660000  0.30880000  1
  O  O381  1  0.02040000  0.19090000  0.62850000  1
  O  O382  1  0.02180000  0.08880000  0.71430000  1
  O  O383  1  0.08110000  0.05630000  0.56920000  1
  O  O384  1  0.56860000  0.56860000  0.56860000  1
  O  O385  1  0.93140000  0.93140000  0.56860000  1
  O  O386  1  0.93140000  0.56860000  0.93140000  1
  O  O387  1  0.56860000  0.93140000  0.93140000  1
  O  O388  1  0.43140000  0.43140000  0.43140000  1
  O  O389  1  0.06860000  0.06860000  0.43140000  1
  O  O390  1  0.06860000  0.43140000  0.06860000  1
  O  O391  1  0.43140000  0.06860000  0.06860000  1
