# generated using pymatgen
data_Zr3H32C53O12
_symmetry_space_group_name_H-M   'P 1'
_cell_length_a   19.93600000
_cell_length_b   19.93600000
_cell_length_c   25.39702341
_cell_angle_alpha   113.10933283
_cell_angle_beta   113.10933283
_cell_angle_gamma   90.00000000
_symmetry_Int_Tables_number   1
_chemical_formula_structural   Zr3H32C53O12
_chemical_formula_sum   'Zr6 H64 C106 O24'
_cell_volume   8396.20525005
_cell_formula_units_Z   2
loop_
 _symmetry_equiv_pos_site_id
 _symmetry_equiv_pos_as_xyz
  1  'x, y, z'
loop_
 _atom_site_type_symbol
 _atom_site_label
 _atom_site_symmetry_multiplicity
 _atom_site_fract_x
 _atom_site_fract_y
 _atom_site_fract_z
 _atom_site_occupancy
  C  C0  1  0.07645000  0.22885000  0.15450000  1
  C  C1  1  0.10621000  0.30511000  0.20502000  1
  C  C2  1  0.12521000  0.31361000  0.26642000  1
  C  C3  1  0.15386000  0.38356000  0.31672000  1
  C  C4  1  0.16341000  0.44501000  0.30562000  1
  C  C5  1  0.14442000  0.43652000  0.24424000  1
  C  C6  1  0.11577000  0.36657000  0.19394000  1
  C  C7  1  0.19201000  0.52231000  0.36062000  1
  C  C8  1  0.15882000  0.54272000  0.40224000  1
  C  C9  1  0.17584000  0.61544000  0.44788000  1
  C  C10  1  0.22596000  0.66766000  0.45192000  1
  C  C11  1  0.25916000  0.64726000  0.41032000  1
  C  C12  1  0.24223000  0.57453000  0.36466000  1
  C  C13  1  0.25000000  0.75000000  0.50000000  1
  C  C14  1  0.92565000  0.07645000  0.15450000  1
  C  C15  1  0.89991000  0.10621000  0.20502000  1
  C  C16  1  0.95281000  0.12521000  0.26642000  1
  C  C17  1  0.93316000  0.15386000  0.31672000  1
  C  C18  1  0.86061000  0.16341000  0.30562000  1
  C  C19  1  0.80772000  0.14442000  0.24424000  1
  C  C20  1  0.82737000  0.11577000  0.19394000  1
  C  C21  1  0.83831000  0.19201000  0.36062000  1
  C  C22  1  0.85952000  0.15882000  0.40224000  1
  C  C23  1  0.83244000  0.17584000  0.44788000  1
  C  C24  1  0.78426000  0.22596000  0.45192000  1
  C  C25  1  0.76306000  0.25916000  0.41032000  1
  C  C26  1  0.79013000  0.24223000  0.36466000  1
  C  C27  1  0.75000000  0.25000000  0.50000000  1
  C  C28  1  0.07805000  0.92565000  0.15450000  1
  C  C29  1  0.09881000  0.89991000  0.20502000  1
  C  C30  1  0.14121000  0.95281000  0.26642000  1
  C  C31  1  0.16286000  0.93316000  0.31672000  1
  C  C32  1  0.14221000  0.86061000  0.30562000  1
  C  C33  1  0.09982000  0.80772000  0.24424000  1
  C  C34  1  0.07817000  0.82737000  0.19394000  1
  C  C35  1  0.16861000  0.83831000  0.36062000  1
  C  C36  1  0.24342000  0.85952000  0.40224000  1
  C  C37  1  0.27204000  0.83244000  0.44788000  1
  C  C38  1  0.22596000  0.78426000  0.45192000  1
  C  C39  1  0.15116000  0.76306000  0.41032000  1
  C  C40  1  0.12243000  0.79013000  0.36466000  1
  C  C41  1  0.22885000  0.07805000  0.15450000  1
  C  C42  1  0.30511000  0.09881000  0.20502000  1
  C  C43  1  0.31361000  0.14121000  0.26642000  1
  C  C44  1  0.38356000  0.16286000  0.31672000  1
  C  C45  1  0.44501000  0.14221000  0.30562000  1
  C  C46  1  0.43652000  0.09982000  0.24424000  1
  C  C47  1  0.36657000  0.07817000  0.19394000  1
  C  C48  1  0.52231000  0.16861000  0.36062000  1
  C  C49  1  0.54272000  0.24342000  0.40224000  1
  C  C50  1  0.61544000  0.27204000  0.44788000  1
  C  C51  1  0.66766000  0.22596000  0.45192000  1
  C  C52  1  0.64726000  0.15116000  0.41032000  1
  C  C53  1  0.57453000  0.12243000  0.36466000  1
  C  C54  1  0.92355000  0.77115000  0.84550000  1
  C  C55  1  0.89379000  0.69489000  0.79498000  1
  C  C56  1  0.87479000  0.68639000  0.73358000  1
  C  C57  1  0.84614000  0.61644000  0.68328000  1
  C  C58  1  0.83659000  0.55499000  0.69438000  1
  C  C59  1  0.85558000  0.56348000  0.75576000  1
  C  C60  1  0.88423000  0.63343000  0.80606000  1
  C  C61  1  0.80799000  0.47769000  0.63938000  1
  C  C62  1  0.84118000  0.45728000  0.59776000  1
  C  C63  1  0.82416000  0.38456000  0.55212000  1
  C  C64  1  0.77404000  0.33234000  0.54808000  1
  C  C65  1  0.74084000  0.35274000  0.58968000  1
  C  C66  1  0.75777000  0.42547000  0.63534000  1
  C  C67  1  0.07435000  0.92355000  0.84550000  1
  C  C68  1  0.10009000  0.89379000  0.79498000  1
  C  C69  1  0.04719000  0.87479000  0.73358000  1
  C  C70  1  0.06684000  0.84614000  0.68328000  1
  C  C71  1  0.13939000  0.83659000  0.69438000  1
  C  C72  1  0.19228000  0.85558000  0.75576000  1
  C  C73  1  0.17263000  0.88423000  0.80606000  1
  C  C74  1  0.16169000  0.80799000  0.63938000  1
  C  C75  1  0.14048000  0.84118000  0.59776000  1
  C  C76  1  0.16756000  0.82416000  0.55212000  1
  C  C77  1  0.21574000  0.77404000  0.54808000  1
  C  C78  1  0.23694000  0.74084000  0.58968000  1
  C  C79  1  0.20987000  0.75777000  0.63534000  1
  C  C80  1  0.92195000  0.07435000  0.84550000  1
  C  C81  1  0.90119000  0.10009000  0.79498000  1
  C  C82  1  0.85879000  0.04719000  0.73358000  1
  C  C83  1  0.83714000  0.06684000  0.68328000  1
  C  C84  1  0.85779000  0.13939000  0.69438000  1
  C  C85  1  0.90018000  0.19228000  0.75576000  1
  C  C86  1  0.92183000  0.17263000  0.80606000  1
  C  C87  1  0.83139000  0.16169000  0.63938000  1
  C  C88  1  0.75658000  0.14048000  0.59776000  1
  C  C89  1  0.72796000  0.16756000  0.55212000  1
  C  C90  1  0.77404000  0.21574000  0.54808000  1
  C  C91  1  0.84884000  0.23694000  0.58968000  1
  C  C92  1  0.87757000  0.20987000  0.63534000  1
  C  C93  1  0.77115000  0.92195000  0.84550000  1
  C  C94  1  0.69489000  0.90119000  0.79498000  1
  C  C95  1  0.68639000  0.85879000  0.73358000  1
  C  C96  1  0.61644000  0.83714000  0.68328000  1
  C  C97  1  0.55499000  0.85779000  0.69438000  1
  C  C98  1  0.56348000  0.90018000  0.75576000  1
  C  C99  1  0.63343000  0.92183000  0.80606000  1
  C  C100  1  0.47769000  0.83139000  0.63938000  1
  C  C101  1  0.45728000  0.75658000  0.59776000  1
  C  C102  1  0.38456000  0.72796000  0.55212000  1
  C  C103  1  0.33234000  0.77404000  0.54808000  1
  C  C104  1  0.35274000  0.84884000  0.58968000  1
  C  C105  1  0.42547000  0.87757000  0.63534000  1
  H  H106  1  0.11870000  0.27150000  0.27400000  1
  H  H107  1  0.16680000  0.38930000  0.35860000  1
  H  H108  1  0.15090000  0.47860000  0.23660000  1
  H  H109  1  0.10280000  0.36080000  0.15200000  1
  H  H110  1  0.12450000  0.50700000  0.39940000  1
  H  H111  1  0.15310000  0.62950000  0.47640000  1
  H  H112  1  0.29350000  0.68290000  0.41300000  1
  H  H113  1  0.26490000  0.56060000  0.33620000  1
  H  H114  1  0.00250000  0.11870000  0.27400000  1
  H  H115  1  0.96930000  0.16680000  0.35860000  1
  H  H116  1  0.75800000  0.15090000  0.23660000  1
  H  H117  1  0.79120000  0.10280000  0.15200000  1
  H  H118  1  0.89240000  0.12450000  0.39940000  1
  H  H119  1  0.84690000  0.15310000  0.47640000  1
  H  H120  1  0.73010000  0.29350000  0.41300000  1
  H  H121  1  0.77560000  0.26490000  0.33620000  1
  H  H122  1  0.15530000  0.00250000  0.27400000  1
  H  H123  1  0.19180000  0.96930000  0.35860000  1
  H  H124  1  0.08570000  0.75800000  0.23660000  1
  H  H125  1  0.04920000  0.79120000  0.15200000  1
  H  H126  1  0.27490000  0.89240000  0.39940000  1
  H  H127  1  0.32330000  0.84690000  0.47640000  1
  H  H128  1  0.11950000  0.73010000  0.41300000  1
  H  H129  1  0.07130000  0.77560000  0.33620000  1
  H  H130  1  0.27150000  0.15530000  0.27400000  1
  H  H131  1  0.38930000  0.19180000  0.35860000  1
  H  H132  1  0.47860000  0.08570000  0.23660000  1
  H  H133  1  0.36080000  0.04920000  0.15200000  1
  H  H134  1  0.50700000  0.27490000  0.39940000  1
  H  H135  1  0.62950000  0.32330000  0.47640000  1
  H  H136  1  0.68290000  0.11950000  0.41300000  1
  H  H137  1  0.56060000  0.07130000  0.33620000  1
  H  H138  1  0.88130000  0.72850000  0.72600000  1
  H  H139  1  0.83320000  0.61070000  0.64140000  1
  H  H140  1  0.84910000  0.52140000  0.76340000  1
  H  H141  1  0.89720000  0.63920000  0.84800000  1
  H  H142  1  0.87550000  0.49300000  0.60060000  1
  H  H143  1  0.84690000  0.37050000  0.52360000  1
  H  H144  1  0.70650000  0.31710000  0.58700000  1
  H  H145  1  0.73510000  0.43940000  0.66380000  1
  H  H146  1  0.99750000  0.88130000  0.72600000  1
  H  H147  1  0.03070000  0.83320000  0.64140000  1
  H  H148  1  0.24200000  0.84910000  0.76340000  1
  H  H149  1  0.20880000  0.89720000  0.84800000  1
  H  H150  1  0.10760000  0.87550000  0.60060000  1
  H  H151  1  0.15310000  0.84690000  0.52360000  1
  H  H152  1  0.26990000  0.70650000  0.58700000  1
  H  H153  1  0.22440000  0.73510000  0.66380000  1
  H  H154  1  0.84470000  0.99750000  0.72600000  1
  H  H155  1  0.80820000  0.03070000  0.64140000  1
  H  H156  1  0.91430000  0.24200000  0.76340000  1
  H  H157  1  0.95080000  0.20880000  0.84800000  1
  H  H158  1  0.72510000  0.10760000  0.60060000  1
  H  H159  1  0.67670000  0.15310000  0.52360000  1
  H  H160  1  0.88050000  0.26990000  0.58700000  1
  H  H161  1  0.92870000  0.22440000  0.66380000  1
  H  H162  1  0.72850000  0.84470000  0.72600000  1
  H  H163  1  0.61070000  0.80820000  0.64140000  1
  H  H164  1  0.52140000  0.91430000  0.76340000  1
  H  H165  1  0.63920000  0.95080000  0.84800000  1
  H  H166  1  0.49300000  0.72510000  0.60060000  1
  H  H167  1  0.37050000  0.67670000  0.52360000  1
  H  H168  1  0.31710000  0.88050000  0.58700000  1
  H  H169  1  0.43940000  0.92870000  0.66380000  1
  O  O170  1  0.08523000  0.17683000  0.16886000  1
  O  O171  1  0.05102000  0.22412000  0.09584000  1
  O  O172  1  0.96381000  0.09181000  0.05662000  1
  O  O173  1  0.99203000  0.08523000  0.16886000  1
  O  O174  1  0.87172000  0.05102000  0.09584000  1
  O  O175  1  0.96481000  0.96381000  0.05662000  1
  O  O176  1  0.08363000  0.99203000  0.16886000  1
  O  O177  1  0.04482000  0.87172000  0.09584000  1
  O  O178  1  0.09281000  0.96481000  0.05662000  1
  O  O179  1  0.17683000  0.08363000  0.16886000  1
  O  O180  1  0.22412000  0.04482000  0.09584000  1
  O  O181  1  0.09181000  0.09281000  0.05662000  1
  O  O182  1  0.91477000  0.82317000  0.83114000  1
  O  O183  1  0.94898000  0.77588000  0.90416000  1
  O  O184  1  0.03619000  0.90819000  0.94338000  1
  O  O185  1  0.00797000  0.91477000  0.83114000  1
  O  O186  1  0.12828000  0.94898000  0.90416000  1
  O  O187  1  0.03519000  0.03619000  0.94338000  1
  O  O188  1  0.91637000  0.00797000  0.83114000  1
  O  O189  1  0.95518000  0.12828000  0.90416000  1
  O  O190  1  0.90719000  0.03519000  0.94338000  1
  O  O191  1  0.82317000  0.91637000  0.83114000  1
  O  O192  1  0.77588000  0.95518000  0.90416000  1
  O  O193  1  0.90819000  0.90719000  0.94338000  1
  Zr  Zr194  1  0.05781000  0.05781000  0.11562000  1
  Zr  Zr195  1  0.00084000  0.12513000  1.00000000  1
  Zr  Zr196  1  0.87487000  0.00084000  0.00000000  1
  Zr  Zr197  1  0.99916000  0.87487000  1.00000000  1
  Zr  Zr198  1  0.12513000  0.99916000  0.00000000  1
  Zr  Zr199  1  0.94219000  0.94219000  0.88438000  1
