# generated using pymatgen
data_Zr3H28C48(NO3)4
_symmetry_space_group_name_H-M   'P 1'
_cell_length_a   16.58100000
_cell_length_b   16.58100000
_cell_length_c   40.86792484
_cell_angle_alpha   101.70430100
_cell_angle_beta   101.70430100
_cell_angle_gamma   90.00000000
_symmetry_Int_Tables_number   1
_chemical_formula_structural   Zr3H28C48(NO3)4
_chemical_formula_sum   'Zr12 H112 C192 N16 O48'
_cell_volume   10763.49231315
_cell_formula_units_Z   4
loop_
 _symmetry_equiv_pos_site_id
 _symmetry_equiv_pos_as_xyz
  1  'x, y, z'
loop_
 _atom_site_type_symbol
 _atom_site_label
 _atom_site_symmetry_multiplicity
 _atom_site_fract_x
 _atom_site_fract_y
 _atom_site_fract_z
 _atom_site_occupancy
  C  C0  1  0.44604000  0.45674000  0.16748000  1
  C  C1  1  0.38175000  0.47285000  0.13910000  1
  C  C2  1  0.36506000  0.41556000  0.10852000  1
  C  C3  1  0.30009000  0.42719000  0.08278000  1
  C  C4  1  0.25162000  0.49512000  0.08744000  1
  C  C5  1  0.26999000  0.55299000  0.11798000  1
  C  C6  1  0.33463000  0.54073000  0.14406000  1
  C  C7  1  0.17822000  0.50232000  0.06144000  1
  C  C8  1  0.18778000  0.49988000  0.02756000  1
  C  C9  1  0.26260000  0.50020000  0.01680000  1
  C  C10  1  0.10261000  0.49911000  0.07122000  1
  C  C11  1  0.09118000  0.48208000  0.10296000  1
  C  C12  1  0.21074000  0.44604000  0.66748000  1
  C  C13  1  0.16625000  0.38175000  0.63910000  1
  C  C14  1  0.19296000  0.36506000  0.60852000  1
  C  C15  1  0.15559000  0.30009000  0.58278000  1
  C  C16  1  0.09232000  0.25162000  0.58744000  1
  C  C17  1  0.06499000  0.26999000  0.61798000  1
  C  C18  1  0.10333000  0.33463000  0.64406000  1
  C  C19  1  0.05912000  0.17822000  0.56144000  1
  C  C20  1  0.02768000  0.18778000  0.52756000  1
  C  C21  1  0.01660000  0.26260000  0.51680000  1
  C  C22  1  0.07211000  0.10261000  0.57122000  1
  C  C23  1  0.12088000  0.09118000  0.60296000  1
  C  C24  1  0.72144000  0.21074000  0.16748000  1
  C  C25  1  0.75735000  0.16625000  0.13910000  1
  C  C26  1  0.74346000  0.19296000  0.10852000  1
  C  C27  1  0.78269000  0.15559000  0.08278000  1
  C  C28  1  0.83582000  0.09232000  0.08744000  1
  C  C29  1  0.84799000  0.06499000  0.11798000  1
  C  C30  1  0.80943000  0.10333000  0.14406000  1
  C  C31  1  0.88322000  0.05912000  0.06144000  1
  C  C32  1  0.83978000  0.02768000  0.02756000  1
  C  C33  1  0.75420000  0.01660000  0.01680000  1
  C  C34  1  0.96861000  0.07211000  0.07122000  1
  C  C35  1  0.01178000  0.12088000  0.10296000  1
  C  C36  1  0.45674000  0.72144000  0.66748000  1
  C  C37  1  0.47285000  0.75735000  0.63910000  1
  C  C38  1  0.41556000  0.74346000  0.60852000  1
  C  C39  1  0.42719000  0.78269000  0.58278000  1
  C  C40  1  0.49512000  0.83582000  0.58744000  1
  C  C41  1  0.55299000  0.84799000  0.61798000  1
  C  C42  1  0.54073000  0.80943000  0.64406000  1
  C  C43  1  0.50232000  0.88322000  0.56144000  1
  C  C44  1  0.49988000  0.83978000  0.52756000  1
  C  C45  1  0.50020000  0.75420000  0.51680000  1
  C  C46  1  0.49911000  0.96861000  0.57122000  1
  C  C47  1  0.48208000  0.01178000  0.60296000  1
  C  C48  1  0.27856000  0.54326000  0.83252000  1
  C  C49  1  0.24265000  0.52715000  0.86090000  1
  C  C50  1  0.25654000  0.58444000  0.89148000  1
  C  C51  1  0.21731000  0.57281000  0.91722000  1
  C  C52  1  0.16418000  0.50488000  0.91256000  1
  C  C53  1  0.15201000  0.44701000  0.88202000  1
  C  C54  1  0.19057000  0.45927000  0.85594000  1
  C  C55  1  0.11678000  0.49768000  0.93856000  1
  C  C56  1  0.16022000  0.50012000  0.97244000  1
  C  C57  1  0.24580000  0.49980000  0.98320000  1
  C  C58  1  0.03139000  0.50089000  0.92878000  1
  C  C59  1  0.98822000  0.51792000  0.89704000  1
  C  C60  1  0.78926000  0.27856000  0.33252000  1
  C  C61  1  0.83375000  0.24265000  0.36090000  1
  C  C62  1  0.80704000  0.25654000  0.39148000  1
  C  C63  1  0.84441000  0.21731000  0.41722000  1
  C  C64  1  0.90768000  0.16418000  0.41256000  1
  C  C65  1  0.93501000  0.15201000  0.38202000  1
  C  C66  1  0.89667000  0.19057000  0.35594000  1
  C  C67  1  0.94088000  0.11678000  0.43856000  1
  C  C68  1  0.97232000  0.16022000  0.47244000  1
  C  C69  1  0.98340000  0.24580000  0.48320000  1
  C  C70  1  0.92789000  0.03139000  0.42878000  1
  C  C71  1  0.87912000  0.98822000  0.39704000  1
  C  C72  1  0.55396000  0.78926000  0.83252000  1
  C  C73  1  0.61825000  0.83375000  0.86090000  1
  C  C74  1  0.63494000  0.80704000  0.89148000  1
  C  C75  1  0.69991000  0.84441000  0.91722000  1
  C  C76  1  0.74838000  0.90768000  0.91256000  1
  C  C77  1  0.73001000  0.93501000  0.88202000  1
  C  C78  1  0.66537000  0.89667000  0.85594000  1
  C  C79  1  0.82178000  0.94088000  0.93856000  1
  C  C80  1  0.81222000  0.97232000  0.97244000  1
  C  C81  1  0.73740000  0.98340000  0.98320000  1
  C  C82  1  0.89739000  0.92789000  0.92878000  1
  C  C83  1  0.90882000  0.87912000  0.89704000  1
  C  C84  1  0.54326000  0.55396000  0.33252000  1
  C  C85  1  0.52715000  0.61825000  0.36090000  1
  C  C86  1  0.58444000  0.63494000  0.39148000  1
  C  C87  1  0.57281000  0.69991000  0.41722000  1
  C  C88  1  0.50488000  0.74838000  0.41256000  1
  C  C89  1  0.44701000  0.73001000  0.38202000  1
  C  C90  1  0.45927000  0.66537000  0.35594000  1
  C  C91  1  0.49768000  0.82178000  0.43856000  1
  C  C92  1  0.50012000  0.81222000  0.47244000  1
  C  C93  1  0.49980000  0.73740000  0.48320000  1
  C  C94  1  0.50089000  0.89739000  0.42878000  1
  C  C95  1  0.51792000  0.90882000  0.39704000  1
  C  C96  1  0.55396000  0.54326000  0.83252000  1
  C  C97  1  0.61825000  0.52715000  0.86090000  1
  C  C98  1  0.63494000  0.58444000  0.89148000  1
  C  C99  1  0.69991000  0.57281000  0.91722000  1
  C  C100  1  0.74838000  0.50488000  0.91256000  1
  C  C101  1  0.73001000  0.44701000  0.88202000  1
  C  C102  1  0.66537000  0.45927000  0.85594000  1
  C  C103  1  0.82178000  0.49768000  0.93856000  1
  C  C104  1  0.81222000  0.50012000  0.97244000  1
  C  C105  1  0.73740000  0.49980000  0.98320000  1
  C  C106  1  0.89739000  0.50089000  0.92878000  1
  C  C107  1  0.90882000  0.51792000  0.89704000  1
  C  C108  1  0.78926000  0.55396000  0.33252000  1
  C  C109  1  0.83375000  0.61825000  0.36090000  1
  C  C110  1  0.80704000  0.63494000  0.39148000  1
  C  C111  1  0.84441000  0.69991000  0.41722000  1
  C  C112  1  0.90768000  0.74838000  0.41256000  1
  C  C113  1  0.93501000  0.73001000  0.38202000  1
  C  C114  1  0.89667000  0.66537000  0.35594000  1
  C  C115  1  0.94088000  0.82178000  0.43856000  1
  C  C116  1  0.97232000  0.81222000  0.47244000  1
  C  C117  1  0.98340000  0.73740000  0.48320000  1
  C  C118  1  0.92789000  0.89739000  0.42878000  1
  C  C119  1  0.87912000  0.90882000  0.39704000  1
  C  C120  1  0.27856000  0.78926000  0.83252000  1
  C  C121  1  0.24265000  0.83375000  0.86090000  1
  C  C122  1  0.25654000  0.80704000  0.89148000  1
  C  C123  1  0.21731000  0.84441000  0.91722000  1
  C  C124  1  0.16418000  0.90768000  0.91256000  1
  C  C125  1  0.15201000  0.93501000  0.88202000  1
  C  C126  1  0.19057000  0.89667000  0.85594000  1
  C  C127  1  0.11678000  0.94088000  0.93856000  1
  C  C128  1  0.16022000  0.97232000  0.97244000  1
  C  C129  1  0.24580000  0.98340000  0.98320000  1
  C  C130  1  0.03139000  0.92789000  0.92878000  1
  C  C131  1  0.98822000  0.87912000  0.89704000  1
  C  C132  1  0.54326000  0.27856000  0.33252000  1
  C  C133  1  0.52715000  0.24265000  0.36090000  1
  C  C134  1  0.58444000  0.25654000  0.39148000  1
  C  C135  1  0.57281000  0.21731000  0.41722000  1
  C  C136  1  0.50488000  0.16418000  0.41256000  1
  C  C137  1  0.44701000  0.15201000  0.38202000  1
  C  C138  1  0.45927000  0.19057000  0.35594000  1
  C  C139  1  0.49768000  0.11678000  0.43856000  1
  C  C140  1  0.50012000  0.16022000  0.47244000  1
  C  C141  1  0.49980000  0.24580000  0.48320000  1
  C  C142  1  0.50089000  0.03139000  0.42878000  1
  C  C143  1  0.51792000  0.98822000  0.39704000  1
  C  C144  1  0.72144000  0.45674000  0.16748000  1
  C  C145  1  0.75735000  0.47285000  0.13910000  1
  C  C146  1  0.74346000  0.41556000  0.10852000  1
  C  C147  1  0.78269000  0.42719000  0.08278000  1
  C  C148  1  0.83582000  0.49512000  0.08744000  1
  C  C149  1  0.84799000  0.55299000  0.11798000  1
  C  C150  1  0.80943000  0.54073000  0.14406000  1
  C  C151  1  0.88322000  0.50232000  0.06144000  1
  C  C152  1  0.83978000  0.49988000  0.02756000  1
  C  C153  1  0.75420000  0.50020000  0.01680000  1
  C  C154  1  0.96861000  0.49911000  0.07122000  1
  C  C155  1  0.01178000  0.48208000  0.10296000  1
  C  C156  1  0.21074000  0.72144000  0.66748000  1
  C  C157  1  0.16625000  0.75735000  0.63910000  1
  C  C158  1  0.19296000  0.74346000  0.60852000  1
  C  C159  1  0.15559000  0.78269000  0.58278000  1
  C  C160  1  0.09232000  0.83582000  0.58744000  1
  C  C161  1  0.06499000  0.84799000  0.61798000  1
  C  C162  1  0.10333000  0.80943000  0.64406000  1
  C  C163  1  0.05912000  0.88322000  0.56144000  1
  C  C164  1  0.02768000  0.83978000  0.52756000  1
  C  C165  1  0.01660000  0.75420000  0.51680000  1
  C  C166  1  0.07211000  0.96861000  0.57122000  1
  C  C167  1  0.12088000  0.01178000  0.60296000  1
  C  C168  1  0.44604000  0.21074000  0.16748000  1
  C  C169  1  0.38175000  0.16625000  0.13910000  1
  C  C170  1  0.36506000  0.19296000  0.10852000  1
  C  C171  1  0.30009000  0.15559000  0.08278000  1
  C  C172  1  0.25162000  0.09232000  0.08744000  1
  C  C173  1  0.26999000  0.06499000  0.11798000  1
  C  C174  1  0.33463000  0.10333000  0.14406000  1
  C  C175  1  0.17822000  0.05912000  0.06144000  1
  C  C176  1  0.18778000  0.02768000  0.02756000  1
  C  C177  1  0.26260000  0.01660000  0.01680000  1
  C  C178  1  0.10261000  0.07211000  0.07122000  1
  C  C179  1  0.09118000  0.12088000  0.10296000  1
  C  C180  1  0.45674000  0.44604000  0.66748000  1
  C  C181  1  0.47285000  0.38175000  0.63910000  1
  C  C182  1  0.41556000  0.36506000  0.60852000  1
  C  C183  1  0.42719000  0.30009000  0.58278000  1
  C  C184  1  0.49512000  0.25162000  0.58744000  1
  C  C185  1  0.55299000  0.26999000  0.61798000  1
  C  C186  1  0.54073000  0.33463000  0.64406000  1
  C  C187  1  0.50232000  0.17822000  0.56144000  1
  C  C188  1  0.49988000  0.18778000  0.52756000  1
  C  C189  1  0.50020000  0.26260000  0.51680000  1
  C  C190  1  0.49911000  0.10261000  0.57122000  1
  C  C191  1  0.48208000  0.09118000  0.60296000  1
  H  H192  1  0.39770000  0.36860000  0.10520000  1
  H  H193  1  0.28880000  0.38830000  0.06180000  1
  H  H194  1  0.23860000  0.60090000  0.12120000  1
  H  H195  1  0.34590000  0.57930000  0.16520000  1
  H  H196  1  0.31590000  0.50070000  0.03080000  1
  H  H197  1  0.13370000  0.47240000  0.12100000  1
  H  H198  1  0.01540000  0.51330000  0.03080000  1
  H  H199  1  0.07140000  0.50000000  0.00000000  1
  H  H200  1  0.23660000  0.39770000  0.60520000  1
  H  H201  1  0.17350000  0.28880000  0.56180000  1
  H  H202  1  0.02030000  0.23860000  0.62120000  1
  H  H203  1  0.08590000  0.34590000  0.66520000  1
  H  H204  1  0.03010000  0.31590000  0.53080000  1
  H  H205  1  0.14860000  0.13370000  0.62100000  1
  H  H206  1  0.01750000  0.01540000  0.53080000  1
  H  H207  1  0.00000000  0.07140000  0.50000000  1
  H  H208  1  0.70750000  0.23660000  0.10520000  1
  H  H209  1  0.77300000  0.17350000  0.06180000  1
  H  H210  1  0.88260000  0.02030000  0.12120000  1
  H  H211  1  0.81930000  0.08590000  0.16520000  1
  H  H212  1  0.71490000  0.03010000  0.03080000  1
  H  H213  1  0.98730000  0.14860000  0.12100000  1
  H  H214  1  0.01540000  0.01750000  0.03080000  1
  H  H215  1  0.92860000  1.00000000  0.00000000  1
  H  H216  1  0.36860000  0.70750000  0.60520000  1
  H  H217  1  0.38830000  0.77300000  0.56180000  1
  H  H218  1  0.60090000  0.88260000  0.62120000  1
  H  H219  1  0.57930000  0.81930000  0.66520000  1
  H  H220  1  0.50070000  0.71490000  0.53080000  1
  H  H221  1  0.47240000  0.98730000  0.62100000  1
  H  H222  1  0.51330000  0.01540000  0.53080000  1
  H  H223  1  0.50000000  0.92860000  0.50000000  1
  H  H224  1  0.29250000  0.63140000  0.89480000  1
  H  H225  1  0.22700000  0.61170000  0.93820000  1
  H  H226  1  0.11740000  0.39910000  0.87880000  1
  H  H227  1  0.18070000  0.42070000  0.83480000  1
  H  H228  1  0.28510000  0.49930000  0.96920000  1
  H  H229  1  0.01270000  0.52760000  0.87900000  1
  H  H230  1  0.98460000  0.48670000  0.96920000  1
  H  H231  1  0.76340000  0.29250000  0.39480000  1
  H  H232  1  0.82650000  0.22700000  0.43820000  1
  H  H233  1  0.97970000  0.11740000  0.37880000  1
  H  H234  1  0.91410000  0.18070000  0.33480000  1
  H  H235  1  0.96990000  0.28510000  0.46920000  1
  H  H236  1  0.85140000  0.01270000  0.37900000  1
  H  H237  1  0.98250000  0.98460000  0.46920000  1
  H  H238  1  0.60230000  0.76340000  0.89480000  1
  H  H239  1  0.71120000  0.82650000  0.93820000  1
  H  H240  1  0.76140000  0.97970000  0.87880000  1
  H  H241  1  0.65410000  0.91410000  0.83480000  1
  H  H242  1  0.68410000  0.96990000  0.96920000  1
  H  H243  1  0.86630000  0.85140000  0.87900000  1
  H  H244  1  0.98460000  0.98250000  0.96920000  1
  H  H245  1  0.63140000  0.60230000  0.39480000  1
  H  H246  1  0.61170000  0.71120000  0.43820000  1
  H  H247  1  0.39910000  0.76140000  0.37880000  1
  H  H248  1  0.42070000  0.65410000  0.33480000  1
  H  H249  1  0.49930000  0.68410000  0.46920000  1
  H  H250  1  0.52760000  0.86630000  0.37900000  1
  H  H251  1  0.48670000  0.98460000  0.46920000  1
  H  H252  1  0.60230000  0.63140000  0.89480000  1
  H  H253  1  0.71120000  0.61170000  0.93820000  1
  H  H254  1  0.76140000  0.39910000  0.87880000  1
  H  H255  1  0.65410000  0.42070000  0.83480000  1
  H  H256  1  0.68410000  0.49930000  0.96920000  1
  H  H257  1  0.86630000  0.52760000  0.87900000  1
  H  H258  1  0.92860000  0.50000000  0.00000000  1
  H  H259  1  0.76340000  0.60230000  0.39480000  1
  H  H260  1  0.82650000  0.71120000  0.43820000  1
  H  H261  1  0.97970000  0.76140000  0.37880000  1
  H  H262  1  0.91410000  0.65410000  0.33480000  1
  H  H263  1  0.96990000  0.68410000  0.46920000  1
  H  H264  1  0.85140000  0.86630000  0.37900000  1
  H  H265  1  0.00000000  0.92860000  0.50000000  1
  H  H266  1  0.29250000  0.76340000  0.89480000  1
  H  H267  1  0.22700000  0.82650000  0.93820000  1
  H  H268  1  0.11740000  0.97970000  0.87880000  1
  H  H269  1  0.18070000  0.91410000  0.83480000  1
  H  H270  1  0.28510000  0.96990000  0.96920000  1
  H  H271  1  0.01270000  0.85140000  0.87900000  1
  H  H272  1  0.07140000  0.00000000  0.00000000  1
  H  H273  1  0.63140000  0.29250000  0.39480000  1
  H  H274  1  0.61170000  0.22700000  0.43820000  1
  H  H275  1  0.39910000  0.11740000  0.37880000  1
  H  H276  1  0.42070000  0.18070000  0.33480000  1
  H  H277  1  0.49930000  0.28510000  0.46920000  1
  H  H278  1  0.52760000  0.01270000  0.37900000  1
  H  H279  1  0.50000000  0.07140000  0.50000000  1
  H  H280  1  0.70750000  0.36860000  0.10520000  1
  H  H281  1  0.77300000  0.38830000  0.06180000  1
  H  H282  1  0.88260000  0.60090000  0.12120000  1
  H  H283  1  0.81930000  0.57930000  0.16520000  1
  H  H284  1  0.71490000  0.50070000  0.03080000  1
  H  H285  1  0.98730000  0.47240000  0.12100000  1
  H  H286  1  0.23660000  0.70750000  0.60520000  1
  H  H287  1  0.17350000  0.77300000  0.56180000  1
  H  H288  1  0.02030000  0.88260000  0.62120000  1
  H  H289  1  0.08590000  0.81930000  0.66520000  1
  H  H290  1  0.03010000  0.71490000  0.53080000  1
  H  H291  1  0.14860000  0.98730000  0.62100000  1
  H  H292  1  0.39770000  0.23660000  0.10520000  1
  H  H293  1  0.28880000  0.17350000  0.06180000  1
  H  H294  1  0.23860000  0.02030000  0.12120000  1
  H  H295  1  0.34590000  0.08590000  0.16520000  1
  H  H296  1  0.31590000  0.03010000  0.03080000  1
  H  H297  1  0.13370000  0.14860000  0.12100000  1
  H  H298  1  0.36860000  0.39770000  0.60520000  1
  H  H299  1  0.38830000  0.28880000  0.56180000  1
  H  H300  1  0.60090000  0.23860000  0.62120000  1
  H  H301  1  0.57930000  0.34590000  0.66520000  1
  H  H302  1  0.50070000  0.31590000  0.53080000  1
  H  H303  1  0.47240000  0.13370000  0.62100000  1
  N  N304  1  0.02595000  0.50585000  0.05190000  1
  N  N305  1  0.12440000  0.50000000  0.00000000  1
  N  N306  1  0.04605000  0.02595000  0.55190000  1
  N  N307  1  0.00000000  0.12440000  0.50000000  1
  N  N308  1  0.02595000  0.04605000  0.05190000  1
  N  N309  1  0.87560000  1.00000000  1.00000000  1
  N  N310  1  0.50585000  0.02595000  0.55190000  1
  N  N311  1  0.50000000  0.87560000  0.50000000  1
  N  N312  1  0.97405000  0.49415000  0.94810000  1
  N  N313  1  0.95395000  0.97405000  0.44810000  1
  N  N314  1  0.97405000  0.95395000  0.94810000  1
  N  N315  1  0.49415000  0.97405000  0.44810000  1
  N  N316  1  0.87560000  0.50000000  1.00000000  1
  N  N317  1  0.00000000  0.87560000  0.50000000  1
  N  N318  1  0.12440000  0.00000000  0.00000000  1
  N  N319  1  0.50000000  0.12440000  0.50000000  1
  O  O320  1  0.44279000  0.49031000  0.19762000  1
  O  O321  1  0.49856000  0.40767000  0.15886000  1
  O  O322  1  0.52128000  0.36150000  0.22300000  1
  O  O323  1  0.60779000  0.48008000  0.21558000  1
  O  O324  1  0.20731000  0.44279000  0.69762000  1
  O  O325  1  0.25119000  0.49856000  0.65886000  1
  O  O326  1  0.36150000  0.52128000  0.72300000  1
  O  O327  1  0.23550000  0.60779000  0.71558000  1
  O  O328  1  0.75483000  0.20731000  0.19762000  1
  O  O329  1  0.66030000  0.25119000  0.15886000  1
  O  O330  1  0.70172000  0.36150000  0.22300000  1
  O  O331  1  0.60779000  0.23550000  0.21558000  1
  O  O332  1  0.49031000  0.75483000  0.69762000  1
  O  O333  1  0.40767000  0.66030000  0.65886000  1
  O  O334  1  0.36150000  0.70172000  0.72300000  1
  O  O335  1  0.48008000  0.60779000  0.71558000  1
  O  O336  1  0.24517000  0.50969000  0.80238000  1
  O  O337  1  0.33970000  0.59233000  0.84114000  1
  O  O338  1  0.29828000  0.63850000  0.77700000  1
  O  O339  1  0.39221000  0.51992000  0.78442000  1
  O  O340  1  0.79269000  0.24517000  0.30238000  1
  O  O341  1  0.74881000  0.33970000  0.34114000  1
  O  O342  1  0.63850000  0.29828000  0.27700000  1
  O  O343  1  0.76450000  0.39221000  0.28442000  1
  O  O344  1  0.55721000  0.79269000  0.80238000  1
  O  O345  1  0.50144000  0.74881000  0.84114000  1
  O  O346  1  0.47872000  0.63850000  0.77700000  1
  O  O347  1  0.39221000  0.76450000  0.78442000  1
  O  O348  1  0.50969000  0.55721000  0.30238000  1
  O  O349  1  0.59233000  0.50144000  0.34114000  1
  O  O350  1  0.63850000  0.47872000  0.27700000  1
  O  O351  1  0.51992000  0.39221000  0.28442000  1
  O  O352  1  0.55721000  0.50969000  0.80238000  1
  O  O353  1  0.50144000  0.59233000  0.84114000  1
  O  O354  1  0.79269000  0.55721000  0.30238000  1
  O  O355  1  0.74881000  0.50144000  0.34114000  1
  O  O356  1  0.24517000  0.79269000  0.80238000  1
  O  O357  1  0.33970000  0.74881000  0.84114000  1
  O  O358  1  0.50969000  0.24517000  0.30238000  1
  O  O359  1  0.59233000  0.33970000  0.34114000  1
  O  O360  1  0.75483000  0.49031000  0.19762000  1
  O  O361  1  0.66030000  0.40767000  0.15886000  1
  O  O362  1  0.20731000  0.75483000  0.69762000  1
  O  O363  1  0.25119000  0.66030000  0.65886000  1
  O  O364  1  0.44279000  0.20731000  0.19762000  1
  O  O365  1  0.49856000  0.25119000  0.15886000  1
  O  O366  1  0.49031000  0.44279000  0.69762000  1
  O  O367  1  0.40767000  0.49856000  0.65886000  1
  Zr  Zr368  1  0.59388000  0.34388000  0.18776000  1
  Zr  Zr369  1  0.51848000  0.48152000  0.25000000  1
  Zr  Zr370  1  0.34388000  0.59388000  0.68776000  1
  Zr  Zr371  1  0.26848000  0.51848000  0.75000000  1
  Zr  Zr372  1  0.73152000  0.26848000  0.25000000  1
  Zr  Zr373  1  0.48152000  0.73152000  0.75000000  1
  Zr  Zr374  1  0.40612000  0.65612000  0.81224000  1
  Zr  Zr375  1  0.65612000  0.40612000  0.31224000  1
  Zr  Zr376  1  0.48152000  0.51848000  0.75000000  1
  Zr  Zr377  1  0.73152000  0.48152000  0.25000000  1
  Zr  Zr378  1  0.26848000  0.73152000  0.75000000  1
  Zr  Zr379  1  0.51848000  0.26848000  0.25000000  1
