# generated using pymatgen
data_Zr3H12(C3O2)8
_symmetry_space_group_name_H-M   'P 1'
_cell_length_a   14.61384656
_cell_length_b   14.61384656
_cell_length_c   14.61384656
_cell_angle_alpha   60.00000000
_cell_angle_beta   60.00000000
_cell_angle_gamma   60.00000000
_symmetry_Int_Tables_number   1
_chemical_formula_structural   Zr3H12(C3O2)8
_chemical_formula_sum   'Zr6 H24 C48 O32'
_cell_volume   2206.87955476
_cell_formula_units_Z   2
loop_
 _symmetry_equiv_pos_site_id
 _symmetry_equiv_pos_as_xyz
  1  'x, y, z'
loop_
 _atom_site_type_symbol
 _atom_site_label
 _atom_site_symmetry_multiplicity
 _atom_site_fract_x
 _atom_site_fract_y
 _atom_site_fract_z
 _atom_site_occupancy
  C  C0  1  0.08310000  0.54778000  0.45222000  1
  C  C1  1  0.91690000  0.45222000  0.54778000  1
  C  C2  1  0.45222000  0.91690000  0.08310000  1
  C  C3  1  0.54778000  0.08310000  0.91690000  1
  C  C4  1  0.54778000  0.45222000  0.08310000  1
  C  C5  1  0.45222000  0.54778000  0.91690000  1
  C  C6  1  0.91690000  0.08310000  0.45222000  1
  C  C7  1  0.08310000  0.91690000  0.54778000  1
  C  C8  1  0.45222000  0.08310000  0.54778000  1
  C  C9  1  0.54778000  0.91690000  0.45222000  1
  C  C10  1  0.08310000  0.45222000  0.91690000  1
  C  C11  1  0.91690000  0.54778000  0.08310000  1
  C  C12  1  0.08310000  0.45222000  0.54778000  1
  C  C13  1  0.91690000  0.54778000  0.45222000  1
  C  C14  1  0.45222000  0.08310000  0.91690000  1
  C  C15  1  0.54778000  0.91690000  0.08310000  1
  C  C16  1  0.08310000  0.54778000  0.91690000  1
  C  C17  1  0.91690000  0.45222000  0.08310000  1
  C  C18  1  0.45222000  0.91690000  0.54778000  1
  C  C19  1  0.54778000  0.08310000  0.45222000  1
  C  C20  1  0.08310000  0.91690000  0.45222000  1
  C  C21  1  0.91690000  0.08310000  0.54778000  1
  C  C22  1  0.45222000  0.54778000  0.08310000  1
  C  C23  1  0.54778000  0.45222000  0.91690000  1
  C  C24  1  0.00000000  0.69916000  0.30084000  1
  C  C25  1  0.00000000  0.59186000  0.40814000  1
  C  C26  1  0.00000000  0.30084000  0.69916000  1
  C  C27  1  0.00000000  0.40814000  0.59186000  1
  C  C28  1  0.30084000  0.00000000  0.00000000  1
  C  C29  1  0.40814000  0.00000000  0.00000000  1
  C  C30  1  0.69916000  0.00000000  0.00000000  1
  C  C31  1  0.59186000  0.00000000  0.00000000  1
  C  C32  1  0.69916000  0.30084000  0.00000000  1
  C  C33  1  0.59186000  0.40814000  0.00000000  1
  C  C34  1  0.30084000  0.69916000  0.00000000  1
  C  C35  1  0.40814000  0.59186000  0.00000000  1
  C  C36  1  1.00000000  0.00000000  0.30084000  1
  C  C37  1  1.00000000  0.00000000  0.40814000  1
  C  C38  1  1.00000000  0.00000000  0.69916000  1
  C  C39  1  1.00000000  0.00000000  0.59186000  1
  C  C40  1  0.30084000  0.00000000  0.69916000  1
  C  C41  1  0.40814000  0.00000000  0.59186000  1
  C  C42  1  0.69916000  0.00000000  0.30084000  1
  C  C43  1  0.59186000  0.00000000  0.40814000  1
  C  C44  1  1.00000000  0.30084000  0.00000000  1
  C  C45  1  1.00000000  0.40814000  0.00000000  1
  C  C46  1  1.00000000  0.69916000  0.00000000  1
  C  C47  1  1.00000000  0.59186000  0.00000000  1
  H  H48  1  0.14847500  0.58256500  0.41743500  1
  H  H49  1  0.85153250  0.41741750  0.58258250  1
  H  H50  1  0.41742500  0.85153000  0.14847000  1
  H  H51  1  0.58257750  0.14846750  0.85153250  1
  H  H52  1  0.58256500  0.41743500  0.14847000  1
  H  H53  1  0.41742750  0.58257250  0.85153250  1
  H  H54  1  0.85152750  0.14847250  0.41743250  1
  H  H55  1  0.14847000  0.85153000  0.58257500  1
  H  H56  1  0.41741750  0.14846750  0.58258250  1
  H  H57  1  0.58257500  0.85153000  0.41742500  1
  H  H58  1  0.14847250  0.41742750  0.85152750  1
  H  H59  1  0.85152750  0.58256250  0.14847250  1
  H  H60  1  0.14846750  0.41743250  0.58256750  1
  H  H61  1  0.85152750  0.58257250  0.41742750  1
  H  H62  1  0.41742500  0.14847000  0.85153000  1
  H  H63  1  0.58257250  0.85152750  0.14847250  1
  H  H64  1  0.14847750  0.58256750  0.85152250  1
  H  H65  1  0.85153000  0.41743000  0.14847000  1
  H  H66  1  0.41742500  0.85153000  0.58257500  1
  H  H67  1  0.58258500  0.14846500  0.41741500  1
  H  H68  1  0.14847000  0.85153000  0.41741500  1
  H  H69  1  0.85152750  0.14847250  0.58257250  1
  H  H70  1  0.41743250  0.58256750  0.14846750  1
  H  H71  1  0.58256500  0.41743500  0.85153000  1
  O  O72  1  0.91549000  0.72713000  0.27287000  1
  O  O73  1  0.08451000  0.27287000  0.72713000  1
  O  O74  1  0.27287000  0.08451000  0.91549000  1
  O  O75  1  0.72713000  0.91549000  0.08451000  1
  O  O76  1  0.72713000  0.27287000  0.91549000  1
  O  O77  1  0.27287000  0.72713000  0.08451000  1
  O  O78  1  0.08451000  0.91549000  0.27287000  1
  O  O79  1  0.91549000  0.08451000  0.72713000  1
  O  O80  1  0.27287000  0.91549000  0.72713000  1
  O  O81  1  0.72713000  0.08451000  0.27287000  1
  O  O82  1  0.91549000  0.27287000  0.08451000  1
  O  O83  1  0.08451000  0.72713000  0.91549000  1
  O  O84  1  0.91549000  0.27287000  0.72713000  1
  O  O85  1  0.08451000  0.72713000  0.27287000  1
  O  O86  1  0.27287000  0.91549000  0.08451000  1
  O  O87  1  0.72713000  0.08451000  0.91549000  1
  O  O88  1  0.91549000  0.72713000  0.08451000  1
  O  O89  1  0.08451000  0.27287000  0.91549000  1
  O  O90  1  0.27287000  0.08451000  0.72713000  1
  O  O91  1  0.72713000  0.91549000  0.27287000  1
  O  O92  1  0.91549000  0.08451000  0.27287000  1
  O  O93  1  0.08451000  0.91549000  0.72713000  1
  O  O94  1  0.27287000  0.72713000  0.91549000  1
  O  O95  1  0.72713000  0.27287000  0.08451000  1
  O  O96  1  0.05821000  0.82537000  0.05821000  1
  O  O97  1  0.05821000  0.05821000  0.82537000  1
  O  O98  1  0.05821000  0.05821000  0.05821000  1
  O  O99  1  0.82537000  0.05821000  0.05821000  1
  O  O100  1  0.94179000  0.17463000  0.94179000  1
  O  O101  1  0.94179000  0.94179000  0.17463000  1
  O  O102  1  0.17463000  0.94179000  0.94179000  1
  O  O103  1  0.94179000  0.94179000  0.94179000  1
  Zr  Zr104  1  0.12109000  0.87891000  0.12109000  1
  Zr  Zr105  1  0.87891000  0.12109000  0.87891000  1
  Zr  Zr106  1  0.87891000  0.12109000  0.12109000  1
  Zr  Zr107  1  0.12109000  0.87891000  0.87891000  1
  Zr  Zr108  1  0.12109000  0.12109000  0.87891000  1
  Zr  Zr109  1  0.87891000  0.87891000  0.12109000  1
