# generated using pymatgen
data_Zr3C48(N3O8)2
_symmetry_space_group_name_H-M   'P 1'
_cell_length_a   32.49900000
_cell_length_b   32.49900000
_cell_length_c   32.49900000
_cell_angle_alpha   90.00000000
_cell_angle_beta   90.00000000
_cell_angle_gamma   90.00000000
_symmetry_Int_Tables_number   1
_chemical_formula_structural   Zr3C48(N3O8)2
_chemical_formula_sum   'Zr24 C384 N48 O128'
_cell_volume   34324.95634750
_cell_formula_units_Z   8
loop_
 _symmetry_equiv_pos_site_id
 _symmetry_equiv_pos_as_xyz
  1  'x, y, z'
loop_
 _atom_site_type_symbol
 _atom_site_label
 _atom_site_symmetry_multiplicity
 _atom_site_fract_x
 _atom_site_fract_y
 _atom_site_fract_z
 _atom_site_occupancy
  Zr  Zr0  1  0.00000000  0.00000000  0.07530000  1
  Zr  Zr1  1  0.00000000  0.50000000  0.57530000  1
  Zr  Zr2  1  0.50000000  0.00000000  0.57530000  1
  Zr  Zr3  1  0.50000000  0.50000000  0.07530000  1
  Zr  Zr4  1  0.00000000  0.00000000  0.92470000  1
  Zr  Zr5  1  0.00000000  0.50000000  0.42470000  1
  Zr  Zr6  1  0.50000000  0.00000000  0.42470000  1
  Zr  Zr7  1  0.50000000  0.50000000  0.92470000  1
  Zr  Zr8  1  0.07530000  0.00000000  0.00000000  1
  Zr  Zr9  1  0.07530000  0.50000000  0.50000000  1
  Zr  Zr10  1  0.57530000  0.00000000  0.50000000  1
  Zr  Zr11  1  0.57530000  0.50000000  0.00000000  1
  Zr  Zr12  1  0.92470000  0.00000000  0.00000000  1
  Zr  Zr13  1  0.92470000  0.50000000  0.50000000  1
  Zr  Zr14  1  0.42470000  0.00000000  0.50000000  1
  Zr  Zr15  1  0.42470000  0.50000000  0.00000000  1
  Zr  Zr16  1  0.00000000  0.07530000  0.00000000  1
  Zr  Zr17  1  0.00000000  0.57530000  0.50000000  1
  Zr  Zr18  1  0.50000000  0.07530000  0.50000000  1
  Zr  Zr19  1  0.50000000  0.57530000  0.00000000  1
  Zr  Zr20  1  0.00000000  0.92470000  0.00000000  1
  Zr  Zr21  1  0.00000000  0.42470000  0.50000000  1
  Zr  Zr22  1  0.50000000  0.92470000  0.50000000  1
  Zr  Zr23  1  0.50000000  0.42470000  0.00000000  1
  C  C24  1  0.00000000  0.39000000  0.66300000  1
  C  C25  1  0.00000000  0.34700000  0.69400000  1
  C  C26  1  0.00000000  0.30600000  0.68360000  1
  C  C27  1  0.00000000  0.28700000  0.75500000  1
  C  C28  1  0.00000000  0.32900000  0.76600000  1
  C  C29  1  0.00000000  0.35860000  0.73500000  1
  C  C30  1  0.00000000  0.11000000  0.16300000  1
  C  C31  1  0.00000000  0.15300000  0.19400000  1
  C  C32  1  0.00000000  0.19400000  0.18360000  1
  C  C33  1  0.00000000  0.21300000  0.25500000  1
  C  C34  1  0.00000000  0.17100000  0.26600000  1
  C  C35  1  0.00000000  0.14140000  0.23500000  1
  C  C36  1  0.00000000  0.61000000  0.66300000  1
  C  C37  1  0.00000000  0.65300000  0.69400000  1
  C  C38  1  0.00000000  0.69400000  0.68360000  1
  C  C39  1  0.00000000  0.71300000  0.75500000  1
  C  C40  1  0.00000000  0.67100000  0.76600000  1
  C  C41  1  0.00000000  0.64140000  0.73500000  1
  C  C42  1  0.50000000  0.11000000  0.66300000  1
  C  C43  1  0.50000000  0.15300000  0.69400000  1
  C  C44  1  0.50000000  0.19400000  0.68360000  1
  C  C45  1  0.50000000  0.21300000  0.75500000  1
  C  C46  1  0.50000000  0.17100000  0.76600000  1
  C  C47  1  0.50000000  0.14140000  0.73500000  1
  C  C48  1  0.50000000  0.61000000  0.16300000  1
  C  C49  1  0.50000000  0.65300000  0.19400000  1
  C  C50  1  0.50000000  0.69400000  0.18360000  1
  C  C51  1  0.50000000  0.71300000  0.25500000  1
  C  C52  1  0.50000000  0.67100000  0.26600000  1
  C  C53  1  0.50000000  0.64140000  0.23500000  1
  C  C54  1  0.00000000  0.61000000  0.33700000  1
  C  C55  1  0.00000000  0.65300000  0.30600000  1
  C  C56  1  0.00000000  0.69400000  0.31640000  1
  C  C57  1  0.00000000  0.71300000  0.24500000  1
  C  C58  1  0.00000000  0.67100000  0.23400000  1
  C  C59  1  0.00000000  0.64140000  0.26500000  1
  C  C60  1  0.50000000  0.11000000  0.33700000  1
  C  C61  1  0.50000000  0.15300000  0.30600000  1
  C  C62  1  0.50000000  0.19400000  0.31640000  1
  C  C63  1  0.50000000  0.21300000  0.24500000  1
  C  C64  1  0.50000000  0.17100000  0.23400000  1
  C  C65  1  0.50000000  0.14140000  0.26500000  1
  C  C66  1  0.50000000  0.61000000  0.83700000  1
  C  C67  1  0.50000000  0.65300000  0.80600000  1
  C  C68  1  0.50000000  0.69400000  0.81640000  1
  C  C69  1  0.50000000  0.71300000  0.74500000  1
  C  C70  1  0.50000000  0.67100000  0.73400000  1
  C  C71  1  0.50000000  0.64140000  0.76500000  1
  C  C72  1  0.16300000  0.50000000  0.39000000  1
  C  C73  1  0.19400000  0.50000000  0.34700000  1
  C  C74  1  0.18360000  0.50000000  0.30600000  1
  C  C75  1  0.25500000  0.50000000  0.28700000  1
  C  C76  1  0.26600000  0.50000000  0.32900000  1
  C  C77  1  0.23500000  0.50000000  0.35860000  1
  C  C78  1  0.66300000  0.50000000  0.89000000  1
  C  C79  1  0.69400000  0.50000000  0.84700000  1
  C  C80  1  0.68360000  0.50000000  0.80600000  1
  C  C81  1  0.75500000  0.50000000  0.78700000  1
  C  C82  1  0.76600000  0.50000000  0.82900000  1
  C  C83  1  0.73500000  0.50000000  0.85860000  1
  C  C84  1  0.16300000  0.00000000  0.11000000  1
  C  C85  1  0.19400000  0.00000000  0.15300000  1
  C  C86  1  0.18360000  0.00000000  0.19400000  1
  C  C87  1  0.25500000  0.00000000  0.21300000  1
  C  C88  1  0.26600000  0.00000000  0.17100000  1
  C  C89  1  0.23500000  0.00000000  0.14140000  1
  C  C90  1  0.16300000  0.50000000  0.61000000  1
  C  C91  1  0.19400000  0.50000000  0.65300000  1
  C  C92  1  0.18360000  0.50000000  0.69400000  1
  C  C93  1  0.25500000  0.50000000  0.71300000  1
  C  C94  1  0.26600000  0.50000000  0.67100000  1
  C  C95  1  0.23500000  0.50000000  0.64140000  1
  C  C96  1  0.66300000  0.00000000  0.61000000  1
  C  C97  1  0.69400000  0.00000000  0.65300000  1
  C  C98  1  0.68360000  0.00000000  0.69400000  1
  C  C99  1  0.75500000  0.00000000  0.71300000  1
  C  C100  1  0.76600000  0.00000000  0.67100000  1
  C  C101  1  0.73500000  0.00000000  0.64140000  1
  C  C102  1  0.66300000  0.50000000  0.11000000  1
  C  C103  1  0.69400000  0.50000000  0.15300000  1
  C  C104  1  0.68360000  0.50000000  0.19400000  1
  C  C105  1  0.75500000  0.50000000  0.21300000  1
  C  C106  1  0.76600000  0.50000000  0.17100000  1
  C  C107  1  0.73500000  0.50000000  0.14140000  1
  C  C108  1  0.83700000  0.00000000  0.11000000  1
  C  C109  1  0.80600000  0.00000000  0.15300000  1
  C  C110  1  0.81640000  0.00000000  0.19400000  1
  C  C111  1  0.74500000  0.00000000  0.21300000  1
  C  C112  1  0.73400000  0.00000000  0.17100000  1
  C  C113  1  0.76500000  0.00000000  0.14140000  1
  C  C114  1  0.33700000  0.00000000  0.61000000  1
  C  C115  1  0.30600000  0.00000000  0.65300000  1
  C  C116  1  0.31640000  0.00000000  0.69400000  1
  C  C117  1  0.24500000  0.00000000  0.71300000  1
  C  C118  1  0.23400000  0.00000000  0.67100000  1
  C  C119  1  0.26500000  0.00000000  0.64140000  1
  C  C120  1  0.89000000  0.83700000  0.00000000  1
  C  C121  1  0.84700000  0.80600000  0.00000000  1
  C  C122  1  0.80600000  0.81640000  0.00000000  1
  C  C123  1  0.78700000  0.74500000  0.00000000  1
  C  C124  1  0.82900000  0.73400000  0.00000000  1
  C  C125  1  0.85860000  0.76500000  0.00000000  1
  C  C126  1  0.89000000  0.33700000  0.50000000  1
  C  C127  1  0.84700000  0.30600000  0.50000000  1
  C  C128  1  0.80600000  0.31640000  0.50000000  1
  C  C129  1  0.78700000  0.24500000  0.50000000  1
  C  C130  1  0.82900000  0.23400000  0.50000000  1
  C  C131  1  0.85860000  0.26500000  0.50000000  1
  C  C132  1  0.39000000  0.83700000  0.50000000  1
  C  C133  1  0.34700000  0.80600000  0.50000000  1
  C  C134  1  0.30600000  0.81640000  0.50000000  1
  C  C135  1  0.28700000  0.74500000  0.50000000  1
  C  C136  1  0.32900000  0.73400000  0.50000000  1
  C  C137  1  0.35860000  0.76500000  0.50000000  1
  C  C138  1  0.39000000  0.33700000  0.00000000  1
  C  C139  1  0.34700000  0.30600000  0.00000000  1
  C  C140  1  0.30600000  0.31640000  0.00000000  1
  C  C141  1  0.28700000  0.24500000  0.00000000  1
  C  C142  1  0.32900000  0.23400000  0.00000000  1
  C  C143  1  0.35860000  0.26500000  0.00000000  1
  C  C144  1  0.11000000  0.83700000  0.00000000  1
  C  C145  1  0.15300000  0.80600000  0.00000000  1
  C  C146  1  0.19400000  0.81640000  0.00000000  1
  C  C147  1  0.21300000  0.74500000  0.00000000  1
  C  C148  1  0.17100000  0.73400000  0.00000000  1
  C  C149  1  0.14140000  0.76500000  0.00000000  1
  C  C150  1  0.11000000  0.33700000  0.50000000  1
  C  C151  1  0.15300000  0.30600000  0.50000000  1
  C  C152  1  0.19400000  0.31640000  0.50000000  1
  C  C153  1  0.21300000  0.24500000  0.50000000  1
  C  C154  1  0.17100000  0.23400000  0.50000000  1
  C  C155  1  0.14140000  0.26500000  0.50000000  1
  C  C156  1  0.61000000  0.83700000  0.50000000  1
  C  C157  1  0.65300000  0.80600000  0.50000000  1
  C  C158  1  0.69400000  0.81640000  0.50000000  1
  C  C159  1  0.71300000  0.74500000  0.50000000  1
  C  C160  1  0.67100000  0.73400000  0.50000000  1
  C  C161  1  0.64140000  0.76500000  0.50000000  1
  C  C162  1  0.61000000  0.33700000  0.00000000  1
  C  C163  1  0.65300000  0.30600000  0.00000000  1
  C  C164  1  0.69400000  0.31640000  0.00000000  1
  C  C165  1  0.71300000  0.24500000  0.00000000  1
  C  C166  1  0.67100000  0.23400000  0.00000000  1
  C  C167  1  0.64140000  0.26500000  0.00000000  1
  C  C168  1  0.89000000  0.00000000  0.83700000  1
  C  C169  1  0.84700000  0.00000000  0.80600000  1
  C  C170  1  0.80600000  0.00000000  0.81640000  1
  C  C171  1  0.78700000  0.00000000  0.74500000  1
  C  C172  1  0.82900000  0.00000000  0.73400000  1
  C  C173  1  0.85860000  0.00000000  0.76500000  1
  C  C174  1  0.89000000  0.50000000  0.33700000  1
  C  C175  1  0.84700000  0.50000000  0.30600000  1
  C  C176  1  0.80600000  0.50000000  0.31640000  1
  C  C177  1  0.78700000  0.50000000  0.24500000  1
  C  C178  1  0.82900000  0.50000000  0.23400000  1
  C  C179  1  0.85860000  0.50000000  0.26500000  1
  C  C180  1  0.39000000  0.00000000  0.33700000  1
  C  C181  1  0.34700000  0.00000000  0.30600000  1
  C  C182  1  0.30600000  0.00000000  0.31640000  1
  C  C183  1  0.28700000  0.00000000  0.24500000  1
  C  C184  1  0.32900000  0.00000000  0.23400000  1
  C  C185  1  0.35860000  0.00000000  0.26500000  1
  C  C186  1  0.39000000  0.50000000  0.83700000  1
  C  C187  1  0.34700000  0.50000000  0.80600000  1
  C  C188  1  0.30600000  0.50000000  0.81640000  1
  C  C189  1  0.28700000  0.50000000  0.74500000  1
  C  C190  1  0.32900000  0.50000000  0.73400000  1
  C  C191  1  0.35860000  0.50000000  0.76500000  1
  C  C192  1  0.11000000  0.00000000  0.83700000  1
  C  C193  1  0.15300000  0.00000000  0.80600000  1
  C  C194  1  0.19400000  0.00000000  0.81640000  1
  C  C195  1  0.21300000  0.00000000  0.74500000  1
  C  C196  1  0.17100000  0.00000000  0.73400000  1
  C  C197  1  0.14140000  0.00000000  0.76500000  1
  C  C198  1  0.61000000  0.00000000  0.33700000  1
  C  C199  1  0.65300000  0.00000000  0.30600000  1
  C  C200  1  0.69400000  0.00000000  0.31640000  1
  C  C201  1  0.71300000  0.00000000  0.24500000  1
  C  C202  1  0.67100000  0.00000000  0.23400000  1
  C  C203  1  0.64140000  0.00000000  0.26500000  1
  C  C204  1  0.89000000  0.50000000  0.66300000  1
  C  C205  1  0.84700000  0.50000000  0.69400000  1
  C  C206  1  0.80600000  0.50000000  0.68360000  1
  C  C207  1  0.78700000  0.50000000  0.75500000  1
  C  C208  1  0.82900000  0.50000000  0.76600000  1
  C  C209  1  0.85860000  0.50000000  0.73500000  1
  C  C210  1  0.39000000  0.50000000  0.16300000  1
  C  C211  1  0.34700000  0.50000000  0.19400000  1
  C  C212  1  0.30600000  0.50000000  0.18360000  1
  C  C213  1  0.28700000  0.50000000  0.25500000  1
  C  C214  1  0.32900000  0.50000000  0.26600000  1
  C  C215  1  0.35860000  0.50000000  0.23500000  1
  C  C216  1  0.00000000  0.16300000  0.89000000  1
  C  C217  1  0.00000000  0.19400000  0.84700000  1
  C  C218  1  0.00000000  0.18360000  0.80600000  1
  C  C219  1  0.00000000  0.25500000  0.78700000  1
  C  C220  1  0.00000000  0.26600000  0.82900000  1
  C  C221  1  0.00000000  0.23500000  0.85860000  1
  C  C222  1  0.00000000  0.83700000  0.11000000  1
  C  C223  1  0.00000000  0.80600000  0.15300000  1
  C  C224  1  0.00000000  0.81640000  0.19400000  1
  C  C225  1  0.00000000  0.74500000  0.21300000  1
  C  C226  1  0.00000000  0.73400000  0.17100000  1
  C  C227  1  0.00000000  0.76500000  0.14140000  1
  C  C228  1  0.50000000  0.83700000  0.61000000  1
  C  C229  1  0.50000000  0.80600000  0.65300000  1
  C  C230  1  0.50000000  0.81640000  0.69400000  1
  C  C231  1  0.50000000  0.74500000  0.71300000  1
  C  C232  1  0.50000000  0.73400000  0.67100000  1
  C  C233  1  0.50000000  0.76500000  0.64140000  1
  C  C234  1  0.50000000  0.33700000  0.11000000  1
  C  C235  1  0.50000000  0.30600000  0.15300000  1
  C  C236  1  0.50000000  0.31640000  0.19400000  1
  C  C237  1  0.50000000  0.24500000  0.21300000  1
  C  C238  1  0.50000000  0.23400000  0.17100000  1
  C  C239  1  0.50000000  0.26500000  0.14140000  1
  C  C240  1  0.00000000  0.83700000  0.89000000  1
  C  C241  1  0.00000000  0.80600000  0.84700000  1
  C  C242  1  0.00000000  0.81640000  0.80600000  1
  C  C243  1  0.00000000  0.74500000  0.78700000  1
  C  C244  1  0.00000000  0.73400000  0.82900000  1
  C  C245  1  0.00000000  0.76500000  0.85860000  1
  C  C246  1  0.00000000  0.33700000  0.39000000  1
  C  C247  1  0.00000000  0.30600000  0.34700000  1
  C  C248  1  0.00000000  0.31640000  0.30600000  1
  C  C249  1  0.00000000  0.24500000  0.28700000  1
  C  C250  1  0.00000000  0.23400000  0.32900000  1
  C  C251  1  0.00000000  0.26500000  0.35860000  1
  C  C252  1  0.50000000  0.83700000  0.39000000  1
  C  C253  1  0.50000000  0.80600000  0.34700000  1
  C  C254  1  0.50000000  0.81640000  0.30600000  1
  C  C255  1  0.50000000  0.74500000  0.28700000  1
  C  C256  1  0.50000000  0.73400000  0.32900000  1
  C  C257  1  0.50000000  0.76500000  0.35860000  1
  C  C258  1  0.50000000  0.33700000  0.89000000  1
  C  C259  1  0.50000000  0.30600000  0.84700000  1
  C  C260  1  0.50000000  0.31640000  0.80600000  1
  C  C261  1  0.50000000  0.24500000  0.78700000  1
  C  C262  1  0.50000000  0.23400000  0.82900000  1
  C  C263  1  0.50000000  0.26500000  0.85860000  1
  C  C264  1  0.16300000  0.11000000  0.00000000  1
  C  C265  1  0.19400000  0.15300000  0.00000000  1
  C  C266  1  0.18360000  0.19400000  0.00000000  1
  C  C267  1  0.25500000  0.21300000  0.00000000  1
  C  C268  1  0.26600000  0.17100000  0.00000000  1
  C  C269  1  0.23500000  0.14140000  0.00000000  1
  C  C270  1  0.16300000  0.61000000  0.50000000  1
  C  C271  1  0.19400000  0.65300000  0.50000000  1
  C  C272  1  0.18360000  0.69400000  0.50000000  1
  C  C273  1  0.25500000  0.71300000  0.50000000  1
  C  C274  1  0.26600000  0.67100000  0.50000000  1
  C  C275  1  0.23500000  0.64140000  0.50000000  1
  C  C276  1  0.66300000  0.11000000  0.50000000  1
  C  C277  1  0.69400000  0.15300000  0.50000000  1
  C  C278  1  0.68360000  0.19400000  0.50000000  1
  C  C279  1  0.75500000  0.21300000  0.50000000  1
  C  C280  1  0.76600000  0.17100000  0.50000000  1
  C  C281  1  0.73500000  0.14140000  0.50000000  1
  C  C282  1  0.66300000  0.61000000  0.00000000  1
  C  C283  1  0.69400000  0.65300000  0.00000000  1
  C  C284  1  0.68360000  0.69400000  0.00000000  1
  C  C285  1  0.75500000  0.71300000  0.00000000  1
  C  C286  1  0.76600000  0.67100000  0.00000000  1
  C  C287  1  0.73500000  0.64140000  0.00000000  1
  C  C288  1  0.83700000  0.11000000  0.00000000  1
  C  C289  1  0.80600000  0.15300000  0.00000000  1
  C  C290  1  0.81640000  0.19400000  0.00000000  1
  C  C291  1  0.74500000  0.21300000  0.00000000  1
  C  C292  1  0.73400000  0.17100000  0.00000000  1
  C  C293  1  0.76500000  0.14140000  0.00000000  1
  C  C294  1  0.83700000  0.61000000  0.50000000  1
  C  C295  1  0.80600000  0.65300000  0.50000000  1
  C  C296  1  0.81640000  0.69400000  0.50000000  1
  C  C297  1  0.74500000  0.71300000  0.50000000  1
  C  C298  1  0.73400000  0.67100000  0.50000000  1
  C  C299  1  0.76500000  0.64140000  0.50000000  1
  C  C300  1  0.33700000  0.11000000  0.50000000  1
  C  C301  1  0.30600000  0.15300000  0.50000000  1
  C  C302  1  0.31640000  0.19400000  0.50000000  1
  C  C303  1  0.24500000  0.21300000  0.50000000  1
  C  C304  1  0.23400000  0.17100000  0.50000000  1
  C  C305  1  0.26500000  0.14140000  0.50000000  1
  C  C306  1  0.33700000  0.61000000  0.00000000  1
  C  C307  1  0.30600000  0.65300000  0.00000000  1
  C  C308  1  0.31640000  0.69400000  0.00000000  1
  C  C309  1  0.24500000  0.71300000  0.00000000  1
  C  C310  1  0.23400000  0.67100000  0.00000000  1
  C  C311  1  0.26500000  0.64140000  0.00000000  1
  C  C312  1  0.00000000  0.90470000  0.09530000  1
  C  C313  1  0.00000000  0.86850000  0.13150000  1
  C  C314  1  0.00000000  0.40470000  0.59530000  1
  C  C315  1  0.00000000  0.36850000  0.63150000  1
  C  C316  1  0.50000000  0.90470000  0.59530000  1
  C  C317  1  0.50000000  0.86850000  0.63150000  1
  C  C318  1  0.50000000  0.40470000  0.09530000  1
  C  C319  1  0.50000000  0.36850000  0.13150000  1
  C  C320  1  0.00000000  0.09530000  0.09530000  1
  C  C321  1  0.00000000  0.13150000  0.13150000  1
  C  C322  1  0.00000000  0.59530000  0.59530000  1
  C  C323  1  0.00000000  0.63150000  0.63150000  1
  C  C324  1  0.50000000  0.09530000  0.59530000  1
  C  C325  1  0.50000000  0.13150000  0.63150000  1
  C  C326  1  0.50000000  0.59530000  0.09530000  1
  C  C327  1  0.50000000  0.63150000  0.13150000  1
  C  C328  1  0.00000000  0.90470000  0.90470000  1
  C  C329  1  0.00000000  0.86850000  0.86850000  1
  C  C330  1  0.00000000  0.40470000  0.40470000  1
  C  C331  1  0.00000000  0.36850000  0.36850000  1
  C  C332  1  0.50000000  0.90470000  0.40470000  1
  C  C333  1  0.50000000  0.86850000  0.36850000  1
  C  C334  1  0.50000000  0.40470000  0.90470000  1
  C  C335  1  0.50000000  0.36850000  0.86850000  1
  C  C336  1  0.00000000  0.09530000  0.90470000  1
  C  C337  1  0.00000000  0.13150000  0.86850000  1
  C  C338  1  0.00000000  0.59530000  0.40470000  1
  C  C339  1  0.00000000  0.63150000  0.36850000  1
  C  C340  1  0.50000000  0.09530000  0.40470000  1
  C  C341  1  0.50000000  0.13150000  0.36850000  1
  C  C342  1  0.50000000  0.59530000  0.90470000  1
  C  C343  1  0.50000000  0.63150000  0.86850000  1
  C  C344  1  0.09530000  0.00000000  0.90470000  1
  C  C345  1  0.13150000  0.00000000  0.86850000  1
  C  C346  1  0.09530000  0.50000000  0.40470000  1
  C  C347  1  0.13150000  0.50000000  0.36850000  1
  C  C348  1  0.59530000  0.00000000  0.40470000  1
  C  C349  1  0.63150000  0.00000000  0.36850000  1
  C  C350  1  0.59530000  0.50000000  0.90470000  1
  C  C351  1  0.63150000  0.50000000  0.86850000  1
  C  C352  1  0.09530000  0.00000000  0.09530000  1
  C  C353  1  0.13150000  0.00000000  0.13150000  1
  C  C354  1  0.09530000  0.50000000  0.59530000  1
  C  C355  1  0.13150000  0.50000000  0.63150000  1
  C  C356  1  0.59530000  0.00000000  0.59530000  1
  C  C357  1  0.63150000  0.00000000  0.63150000  1
  C  C358  1  0.59530000  0.50000000  0.09530000  1
  C  C359  1  0.63150000  0.50000000  0.13150000  1
  C  C360  1  0.90470000  0.00000000  0.90470000  1
  C  C361  1  0.86850000  0.00000000  0.86850000  1
  C  C362  1  0.90470000  0.50000000  0.40470000  1
  C  C363  1  0.86850000  0.50000000  0.36850000  1
  C  C364  1  0.40470000  0.00000000  0.40470000  1
  C  C365  1  0.36850000  0.00000000  0.36850000  1
  C  C366  1  0.40470000  0.50000000  0.90470000  1
  C  C367  1  0.36850000  0.50000000  0.86850000  1
  C  C368  1  0.90470000  0.00000000  0.09530000  1
  C  C369  1  0.86850000  0.00000000  0.13150000  1
  C  C370  1  0.90470000  0.50000000  0.59530000  1
  C  C371  1  0.86850000  0.50000000  0.63150000  1
  C  C372  1  0.40470000  0.00000000  0.59530000  1
  C  C373  1  0.36850000  0.00000000  0.63150000  1
  C  C374  1  0.40470000  0.50000000  0.09530000  1
  C  C375  1  0.36850000  0.50000000  0.13150000  1
  C  C376  1  0.90470000  0.09530000  0.00000000  1
  C  C377  1  0.86850000  0.13150000  0.00000000  1
  C  C378  1  0.90470000  0.59530000  0.50000000  1
  C  C379  1  0.86850000  0.63150000  0.50000000  1
  C  C380  1  0.40470000  0.09530000  0.50000000  1
  C  C381  1  0.36850000  0.13150000  0.50000000  1
  C  C382  1  0.40470000  0.59530000  0.00000000  1
  C  C383  1  0.36850000  0.63150000  0.00000000  1
  C  C384  1  0.09530000  0.09530000  0.00000000  1
  C  C385  1  0.13150000  0.13150000  0.00000000  1
  C  C386  1  0.09530000  0.59530000  0.50000000  1
  C  C387  1  0.13150000  0.63150000  0.50000000  1
  C  C388  1  0.59530000  0.09530000  0.50000000  1
  C  C389  1  0.63150000  0.13150000  0.50000000  1
  C  C390  1  0.59530000  0.59530000  0.00000000  1
  C  C391  1  0.63150000  0.63150000  0.00000000  1
  C  C392  1  0.90470000  0.90470000  0.00000000  1
  C  C393  1  0.86850000  0.86850000  0.00000000  1
  C  C394  1  0.90470000  0.40470000  0.50000000  1
  C  C395  1  0.86850000  0.36850000  0.50000000  1
  C  C396  1  0.40470000  0.90470000  0.50000000  1
  C  C397  1  0.36850000  0.86850000  0.50000000  1
  C  C398  1  0.40470000  0.40470000  0.00000000  1
  C  C399  1  0.36850000  0.36850000  0.00000000  1
  C  C400  1  0.09530000  0.90470000  0.00000000  1
  C  C401  1  0.13150000  0.86850000  0.00000000  1
  C  C402  1  0.09530000  0.40470000  0.50000000  1
  C  C403  1  0.13150000  0.36850000  0.50000000  1
  C  C404  1  0.59530000  0.90470000  0.50000000  1
  C  C405  1  0.63150000  0.86850000  0.50000000  1
  C  C406  1  0.59530000  0.40470000  0.00000000  1
  C  C407  1  0.63150000  0.36850000  0.00000000  1
  N  N408  1  0.00000000  0.27580000  0.71400000  1
  N  N409  1  0.00000000  0.22420000  0.21400000  1
  N  N410  1  0.00000000  0.72420000  0.71400000  1
  N  N411  1  0.50000000  0.22420000  0.71400000  1
  N  N412  1  0.50000000  0.72420000  0.21400000  1
  N  N413  1  0.00000000  0.72420000  0.28600000  1
  N  N414  1  0.50000000  0.22420000  0.28600000  1
  N  N415  1  0.50000000  0.72420000  0.78600000  1
  N  N416  1  0.21400000  0.50000000  0.27580000  1
  N  N417  1  0.71400000  0.50000000  0.77580000  1
  N  N418  1  0.21400000  0.00000000  0.22420000  1
  N  N419  1  0.21400000  0.50000000  0.72420000  1
  N  N420  1  0.71400000  0.00000000  0.72420000  1
  N  N421  1  0.71400000  0.50000000  0.22420000  1
  N  N422  1  0.78600000  0.00000000  0.22420000  1
  N  N423  1  0.28600000  0.00000000  0.72420000  1
  N  N424  1  0.77580000  0.78600000  0.00000000  1
  N  N425  1  0.77580000  0.28600000  0.50000000  1
  N  N426  1  0.27580000  0.78600000  0.50000000  1
  N  N427  1  0.27580000  0.28600000  0.00000000  1
  N  N428  1  0.22420000  0.78600000  0.00000000  1
  N  N429  1  0.22420000  0.28600000  0.50000000  1
  N  N430  1  0.72420000  0.78600000  0.50000000  1
  N  N431  1  0.72420000  0.28600000  0.00000000  1
  N  N432  1  0.77580000  0.00000000  0.78600000  1
  N  N433  1  0.77580000  0.50000000  0.28600000  1
  N  N434  1  0.27580000  0.00000000  0.28600000  1
  N  N435  1  0.27580000  0.50000000  0.78600000  1
  N  N436  1  0.22420000  0.00000000  0.78600000  1
  N  N437  1  0.72420000  0.00000000  0.28600000  1
  N  N438  1  0.77580000  0.50000000  0.71400000  1
  N  N439  1  0.27580000  0.50000000  0.21400000  1
  N  N440  1  0.00000000  0.21400000  0.77580000  1
  N  N441  1  0.00000000  0.78600000  0.22420000  1
  N  N442  1  0.50000000  0.78600000  0.72420000  1
  N  N443  1  0.50000000  0.28600000  0.22420000  1
  N  N444  1  0.00000000  0.78600000  0.77580000  1
  N  N445  1  0.00000000  0.28600000  0.27580000  1
  N  N446  1  0.50000000  0.78600000  0.27580000  1
  N  N447  1  0.50000000  0.28600000  0.77580000  1
  N  N448  1  0.21400000  0.22420000  0.00000000  1
  N  N449  1  0.21400000  0.72420000  0.50000000  1
  N  N450  1  0.71400000  0.22420000  0.50000000  1
  N  N451  1  0.71400000  0.72420000  0.00000000  1
  N  N452  1  0.78600000  0.22420000  0.00000000  1
  N  N453  1  0.78600000  0.72420000  0.50000000  1
  N  N454  1  0.28600000  0.22420000  0.50000000  1
  N  N455  1  0.28600000  0.72420000  0.00000000  1
  O  O456  1  0.03700000  0.03700000  0.03700000  1
  O  O457  1  0.03700000  0.53700000  0.53700000  1
  O  O458  1  0.53700000  0.03700000  0.53700000  1
  O  O459  1  0.53700000  0.53700000  0.03700000  1
  O  O460  1  0.96300000  0.96300000  0.03700000  1
  O  O461  1  0.96300000  0.46300000  0.53700000  1
  O  O462  1  0.46300000  0.96300000  0.53700000  1
  O  O463  1  0.46300000  0.46300000  0.03700000  1
  O  O464  1  0.96300000  0.03700000  0.96300000  1
  O  O465  1  0.96300000  0.53700000  0.46300000  1
  O  O466  1  0.46300000  0.03700000  0.46300000  1
  O  O467  1  0.46300000  0.53700000  0.96300000  1
  O  O468  1  0.03700000  0.96300000  0.96300000  1
  O  O469  1  0.03700000  0.46300000  0.46300000  1
  O  O470  1  0.53700000  0.96300000  0.46300000  1
  O  O471  1  0.53700000  0.46300000  0.96300000  1
  O  O472  1  0.03700000  0.03700000  0.96300000  1
  O  O473  1  0.03700000  0.53700000  0.46300000  1
  O  O474  1  0.53700000  0.03700000  0.46300000  1
  O  O475  1  0.53700000  0.53700000  0.96300000  1
  O  O476  1  0.96300000  0.96300000  0.96300000  1
  O  O477  1  0.96300000  0.46300000  0.46300000  1
  O  O478  1  0.46300000  0.96300000  0.46300000  1
  O  O479  1  0.46300000  0.46300000  0.96300000  1
  O  O480  1  0.03700000  0.96300000  0.03700000  1
  O  O481  1  0.03700000  0.46300000  0.53700000  1
  O  O482  1  0.53700000  0.96300000  0.53700000  1
  O  O483  1  0.53700000  0.46300000  0.03700000  1
  O  O484  1  0.96300000  0.03700000  0.03700000  1
  O  O485  1  0.96300000  0.53700000  0.53700000  1
  O  O486  1  0.46300000  0.03700000  0.53700000  1
  O  O487  1  0.46300000  0.53700000  0.03700000  1
  O  O488  1  0.00000000  0.94230000  0.10940000  1
  O  O489  1  0.00000000  0.44230000  0.60940000  1
  O  O490  1  0.50000000  0.94230000  0.60940000  1
  O  O491  1  0.50000000  0.44230000  0.10940000  1
  O  O492  1  0.00000000  0.05770000  0.10940000  1
  O  O493  1  0.00000000  0.55770000  0.60940000  1
  O  O494  1  0.50000000  0.05770000  0.60940000  1
  O  O495  1  0.50000000  0.55770000  0.10940000  1
  O  O496  1  0.00000000  0.94230000  0.89060000  1
  O  O497  1  0.00000000  0.44230000  0.39060000  1
  O  O498  1  0.50000000  0.94230000  0.39060000  1
  O  O499  1  0.50000000  0.44230000  0.89060000  1
  O  O500  1  0.00000000  0.05770000  0.89060000  1
  O  O501  1  0.00000000  0.55770000  0.39060000  1
  O  O502  1  0.50000000  0.05770000  0.39060000  1
  O  O503  1  0.50000000  0.55770000  0.89060000  1
  O  O504  1  0.10940000  0.00000000  0.94230000  1
  O  O505  1  0.10940000  0.50000000  0.44230000  1
  O  O506  1  0.60940000  0.00000000  0.44230000  1
  O  O507  1  0.60940000  0.50000000  0.94230000  1
  O  O508  1  0.10940000  0.00000000  0.05770000  1
  O  O509  1  0.10940000  0.50000000  0.55770000  1
  O  O510  1  0.60940000  0.00000000  0.55770000  1
  O  O511  1  0.60940000  0.50000000  0.05770000  1
  O  O512  1  0.89060000  0.00000000  0.94230000  1
  O  O513  1  0.89060000  0.50000000  0.44230000  1
  O  O514  1  0.39060000  0.00000000  0.44230000  1
  O  O515  1  0.39060000  0.50000000  0.94230000  1
  O  O516  1  0.89060000  0.00000000  0.05770000  1
  O  O517  1  0.89060000  0.50000000  0.55770000  1
  O  O518  1  0.39060000  0.00000000  0.55770000  1
  O  O519  1  0.39060000  0.50000000  0.05770000  1
  O  O520  1  0.94230000  0.10940000  0.00000000  1
  O  O521  1  0.94230000  0.60940000  0.50000000  1
  O  O522  1  0.44230000  0.10940000  0.50000000  1
  O  O523  1  0.44230000  0.60940000  0.00000000  1
  O  O524  1  0.05770000  0.10940000  0.00000000  1
  O  O525  1  0.05770000  0.60940000  0.50000000  1
  O  O526  1  0.55770000  0.10940000  0.50000000  1
  O  O527  1  0.55770000  0.60940000  0.00000000  1
  O  O528  1  0.94230000  0.89060000  0.00000000  1
  O  O529  1  0.94230000  0.39060000  0.50000000  1
  O  O530  1  0.44230000  0.89060000  0.50000000  1
  O  O531  1  0.44230000  0.39060000  0.00000000  1
  O  O532  1  0.05770000  0.89060000  0.00000000  1
  O  O533  1  0.05770000  0.39060000  0.50000000  1
  O  O534  1  0.55770000  0.89060000  0.50000000  1
  O  O535  1  0.55770000  0.39060000  0.00000000  1
  O  O536  1  0.94230000  0.00000000  0.89060000  1
  O  O537  1  0.94230000  0.50000000  0.39060000  1
  O  O538  1  0.44230000  0.00000000  0.39060000  1
  O  O539  1  0.44230000  0.50000000  0.89060000  1
  O  O540  1  0.05770000  0.00000000  0.89060000  1
  O  O541  1  0.05770000  0.50000000  0.39060000  1
  O  O542  1  0.55770000  0.00000000  0.39060000  1
  O  O543  1  0.55770000  0.50000000  0.89060000  1
  O  O544  1  0.94230000  0.00000000  0.10940000  1
  O  O545  1  0.94230000  0.50000000  0.60940000  1
  O  O546  1  0.44230000  0.00000000  0.60940000  1
  O  O547  1  0.44230000  0.50000000  0.10940000  1
  O  O548  1  0.05770000  0.00000000  0.10940000  1
  O  O549  1  0.05770000  0.50000000  0.60940000  1
  O  O550  1  0.55770000  0.00000000  0.60940000  1
  O  O551  1  0.55770000  0.50000000  0.10940000  1
  O  O552  1  0.00000000  0.10940000  0.05770000  1
  O  O553  1  0.00000000  0.60940000  0.55770000  1
  O  O554  1  0.50000000  0.10940000  0.55770000  1
  O  O555  1  0.50000000  0.60940000  0.05770000  1
  O  O556  1  0.00000000  0.10940000  0.94230000  1
  O  O557  1  0.00000000  0.60940000  0.44230000  1
  O  O558  1  0.50000000  0.10940000  0.44230000  1
  O  O559  1  0.50000000  0.60940000  0.94230000  1
  O  O560  1  0.00000000  0.89060000  0.05770000  1
  O  O561  1  0.00000000  0.39060000  0.55770000  1
  O  O562  1  0.50000000  0.89060000  0.55770000  1
  O  O563  1  0.50000000  0.39060000  0.05770000  1
  O  O564  1  0.00000000  0.89060000  0.94230000  1
  O  O565  1  0.00000000  0.39060000  0.44230000  1
  O  O566  1  0.50000000  0.89060000  0.44230000  1
  O  O567  1  0.50000000  0.39060000  0.94230000  1
  O  O568  1  0.10940000  0.94230000  0.00000000  1
  O  O569  1  0.10940000  0.44230000  0.50000000  1
  O  O570  1  0.60940000  0.94230000  0.50000000  1
  O  O571  1  0.60940000  0.44230000  0.00000000  1
  O  O572  1  0.10940000  0.05770000  0.00000000  1
  O  O573  1  0.10940000  0.55770000  0.50000000  1
  O  O574  1  0.60940000  0.05770000  0.50000000  1
  O  O575  1  0.60940000  0.55770000  0.00000000  1
  O  O576  1  0.89060000  0.94230000  0.00000000  1
  O  O577  1  0.89060000  0.44230000  0.50000000  1
  O  O578  1  0.39060000  0.94230000  0.50000000  1
  O  O579  1  0.39060000  0.44230000  0.00000000  1
  O  O580  1  0.89060000  0.05770000  0.00000000  1
  O  O581  1  0.89060000  0.55770000  0.50000000  1
  O  O582  1  0.39060000  0.05770000  0.50000000  1
  O  O583  1  0.39060000  0.55770000  0.00000000  1
