# generated using pymatgen
data_Zr3H22(C10O3)4
_symmetry_space_group_name_H-M   'P 1'
_cell_length_a   16.23260000
_cell_length_b   18.38923400
_cell_length_c   19.63148780
_cell_angle_alpha   79.48614413
_cell_angle_beta   65.57934196
_cell_angle_gamma   63.80921716
_symmetry_Int_Tables_number   1
_chemical_formula_structural   Zr3H22(C10O3)4
_chemical_formula_sum   'Zr6 H44 C80 O24'
_cell_volume   4787.99083038
_cell_formula_units_Z   2
loop_
 _symmetry_equiv_pos_site_id
 _symmetry_equiv_pos_as_xyz
  1  'x, y, z'
loop_
 _atom_site_type_symbol
 _atom_site_label
 _atom_site_symmetry_multiplicity
 _atom_site_fract_x
 _atom_site_fract_y
 _atom_site_fract_z
 _atom_site_occupancy
  C  C0  1  0.52891000  0.86262000  0.82036000  1
  C  C1  1  0.55724000  0.81192000  0.75600000  1
  C  C2  1  0.53514000  0.74600000  0.76552000  1
  C  C3  1  0.61225000  0.83154000  0.68456000  1
  C  C4  1  0.56534000  0.69928000  0.70424000  1
  C  C5  1  0.64105000  0.78532000  0.62438000  1
  C  C6  1  0.61946000  0.71914000  0.63294000  1
  C  C7  1  0.65117000  0.67180000  0.56546000  1
  C  C8  1  0.69255000  0.58794000  0.56516000  1
  C  C9  1  0.64324000  0.71352000  0.50000000  1
  C  C10  1  0.72769000  0.54462000  0.50000000  1
  C  C11  1  0.65073000  0.13738000  0.82036000  1
  C  C12  1  0.68676000  0.18808000  0.75600000  1
  C  C13  1  0.69934000  0.25400000  0.76552000  1
  C  C14  1  0.70319000  0.16846000  0.68456000  1
  C  C15  1  0.73042000  0.30072000  0.70424000  1
  C  C16  1  0.73457000  0.21468000  0.62438000  1
  C  C17  1  0.74760000  0.28086000  0.63294000  1
  C  C18  1  0.78337000  0.32820000  0.56546000  1
  C  C19  1  0.74229000  0.41206000  0.56516000  1
  C  C20  1  0.85676000  0.28648000  0.50000000  1
  C  C21  1  0.77231000  0.45538000  0.50000000  1
  C  C22  1  0.21189000  0.13738000  0.17964000  1
  C  C23  1  0.12516000  0.18808000  0.24400000  1
  C  C24  1  0.04666000  0.25400000  0.23448000  1
  C  C25  1  0.12835000  0.16846000  0.31544000  1
  C  C26  1  0.96886000  0.30072000  0.29576000  1
  C  C27  1  0.05075000  0.21468000  0.37562000  1
  C  C28  1  0.97154000  0.28086000  0.36706000  1
  C  C29  1  0.88843000  0.32820000  0.43454000  1
  C  C30  1  0.84565000  0.41206000  0.43484000  1
  C  C31  1  0.60847000  0.86262000  0.17964000  1
  C  C32  1  0.63084000  0.81192000  0.24400000  1
  C  C33  1  0.71886000  0.74600000  0.23448000  1
  C  C34  1  0.55621000  0.83154000  0.31544000  1
  C  C35  1  0.73538000  0.69928000  0.29576000  1
  C  C36  1  0.57363000  0.78532000  0.37562000  1
  C  C37  1  0.66140000  0.71914000  0.36706000  1
  C  C38  1  0.67703000  0.67180000  0.43454000  1
  C  C39  1  0.71951000  0.58794000  0.43484000  1
  C  C40  1  0.47109000  0.13738000  0.17964000  1
  C  C41  1  0.44276000  0.18808000  0.24400000  1
  C  C42  1  0.46486000  0.25400000  0.23448000  1
  C  C43  1  0.38775000  0.16846000  0.31544000  1
  C  C44  1  0.43466000  0.30072000  0.29576000  1
  C  C45  1  0.35895000  0.21468000  0.37562000  1
  C  C46  1  0.38054000  0.28086000  0.36706000  1
  C  C47  1  0.34883000  0.32820000  0.43454000  1
  C  C48  1  0.30745000  0.41206000  0.43484000  1
  C  C49  1  0.35676000  0.28648000  0.50000000  1
  C  C50  1  0.27231000  0.45538000  0.50000000  1
  C  C51  1  0.34927000  0.86262000  0.17964000  1
  C  C52  1  0.31324000  0.81192000  0.24400000  1
  C  C53  1  0.30066000  0.74600000  0.23448000  1
  C  C54  1  0.29681000  0.83154000  0.31544000  1
  C  C55  1  0.26958000  0.69928000  0.29576000  1
  C  C56  1  0.26543000  0.78532000  0.37562000  1
  C  C57  1  0.25240000  0.71914000  0.36706000  1
  C  C58  1  0.21663000  0.67180000  0.43454000  1
  C  C59  1  0.25771000  0.58794000  0.43484000  1
  C  C60  1  0.14324000  0.71352000  0.50000000  1
  C  C61  1  0.22769000  0.54462000  0.50000000  1
  C  C62  1  0.78811000  0.86262000  0.82036000  1
  C  C63  1  0.87484000  0.81192000  0.75600000  1
  C  C64  1  0.95334000  0.74600000  0.76552000  1
  C  C65  1  0.87165000  0.83154000  0.68456000  1
  C  C66  1  0.03114000  0.69928000  0.70424000  1
  C  C67  1  0.94925000  0.78532000  0.62438000  1
  C  C68  1  0.02846000  0.71914000  0.63294000  1
  C  C69  1  0.11157000  0.67180000  0.56546000  1
  C  C70  1  0.15435000  0.58794000  0.56516000  1
  C  C71  1  0.39153000  0.13738000  0.82036000  1
  C  C72  1  0.36916000  0.18808000  0.75600000  1
  C  C73  1  0.28114000  0.25400000  0.76552000  1
  C  C74  1  0.44379000  0.16846000  0.68456000  1
  C  C75  1  0.26462000  0.30072000  0.70424000  1
  C  C76  1  0.42637000  0.21468000  0.62438000  1
  C  C77  1  0.33860000  0.28086000  0.63294000  1
  C  C78  1  0.32297000  0.32820000  0.56546000  1
  C  C79  1  0.28049000  0.41206000  0.56516000  1
  H  H80  1  0.49910000  0.73200000  0.81420000  1
  H  H81  1  0.62950000  0.87620000  0.67760000  1
  H  H82  1  0.54890000  0.65420000  0.71100000  1
  H  H83  1  0.67670000  0.79960000  0.57580000  1
  H  H84  1  0.69730000  0.55920000  0.60980000  1
  H  H85  1  0.61450000  0.77100000  0.50000000  1
  H  H86  1  0.68670000  0.26800000  0.81420000  1
  H  H87  1  0.69290000  0.12380000  0.67760000  1
  H  H88  1  0.74010000  0.34580000  0.71100000  1
  H  H89  1  0.74750000  0.20040000  0.57580000  1
  H  H90  1  0.69290000  0.44080000  0.60980000  1
  H  H91  1  0.88550000  0.22900000  0.50000000  1
  H  H92  1  0.04530000  0.26800000  0.18580000  1
  H  H93  1  0.18330000  0.12380000  0.32240000  1
  H  H94  1  0.91410000  0.34580000  0.28900000  1
  H  H95  1  0.05210000  0.20040000  0.42420000  1
  H  H96  1  0.86630000  0.44080000  0.39020000  1
  H  H97  1  0.76890000  0.73200000  0.18580000  1
  H  H98  1  0.49430000  0.87620000  0.32240000  1
  H  H99  1  0.79690000  0.65420000  0.28900000  1
  H  H100  1  0.52370000  0.79960000  0.42420000  1
  H  H101  1  0.74350000  0.55920000  0.39020000  1
  H  H102  1  0.50090000  0.26800000  0.18580000  1
  H  H103  1  0.37050000  0.12380000  0.32240000  1
  H  H104  1  0.45110000  0.34580000  0.28900000  1
  H  H105  1  0.32330000  0.20040000  0.42420000  1
  H  H106  1  0.30270000  0.44080000  0.39020000  1
  H  H107  1  0.38550000  0.22900000  0.50000000  1
  H  H108  1  0.31330000  0.73200000  0.18580000  1
  H  H109  1  0.30710000  0.87620000  0.32240000  1
  H  H110  1  0.25990000  0.65420000  0.28900000  1
  H  H111  1  0.25250000  0.79960000  0.42420000  1
  H  H112  1  0.30710000  0.55920000  0.39020000  1
  H  H113  1  0.11450000  0.77100000  0.50000000  1
  H  H114  1  0.95470000  0.73200000  0.81420000  1
  H  H115  1  0.81670000  0.87620000  0.67760000  1
  H  H116  1  0.08590000  0.65420000  0.71100000  1
  H  H117  1  0.94790000  0.79960000  0.57580000  1
  H  H118  1  0.13370000  0.55920000  0.60980000  1
  H  H119  1  0.23110000  0.26800000  0.81420000  1
  H  H120  1  0.50570000  0.12380000  0.67760000  1
  H  H121  1  0.20310000  0.34580000  0.71100000  1
  H  H122  1  0.47630000  0.20040000  0.57580000  1
  H  H123  1  0.25650000  0.44080000  0.60980000  1
  O  O124  1  0.55683000  0.92002000  0.80212000  1
  O  O125  1  0.48222000  0.84514000  0.88582000  1
  O  O126  1  0.64083000  0.00000000  0.93454000  1
  O  O127  1  0.47960000  0.10706000  0.93374000  1
  O  O128  1  0.64105000  0.07998000  0.80212000  1
  O  O129  1  0.63196000  0.15486000  0.88582000  1
  O  O130  1  0.42463000  0.00000000  0.93454000  1
  O  O131  1  0.58666000  0.89294000  0.93374000  1
  O  O132  1  0.27897000  0.07998000  0.19788000  1
  O  O133  1  0.21318000  0.15486000  0.11418000  1
  O  O134  1  0.57537000  0.00000000  0.06546000  1
  O  O135  1  0.52040000  0.89294000  0.06626000  1
  O  O136  1  0.52315000  0.92002000  0.19788000  1
  O  O137  1  0.67264000  0.84514000  0.11418000  1
  O  O138  1  0.35917000  0.00000000  0.06546000  1
  O  O139  1  0.41334000  0.10706000  0.06626000  1
  O  O140  1  0.44317000  0.07998000  0.19788000  1
  O  O141  1  0.51778000  0.15486000  0.11418000  1
  O  O142  1  0.35895000  0.92002000  0.19788000  1
  O  O143  1  0.36804000  0.84514000  0.11418000  1
  O  O144  1  0.72103000  0.92002000  0.80212000  1
  O  O145  1  0.78682000  0.84514000  0.88582000  1
  O  O146  1  0.47685000  0.07998000  0.80212000  1
  O  O147  1  0.32736000  0.15486000  0.88582000  1
  Zr  Zr148  1  0.56812000  0.00000000  0.86376000  1
  Zr  Zr149  1  0.55564000  0.10778000  0.00000000  1
  Zr  Zr150  1  0.44436000  0.89222000  0.00000000  1
  Zr  Zr151  1  0.43188000  0.00000000  0.13624000  1
  Zr  Zr152  1  0.66342000  0.89222000  1.00000000  1
  Zr  Zr153  1  0.33658000  0.10778000  0.00000000  1
