# generated using pymatgen
data_Zr3H12C28(IO4)4
_symmetry_space_group_name_H-M   'P 1'
_cell_length_a   14.79700000
_cell_length_b   24.35400000
_cell_length_c   24.35400000
_cell_angle_alpha   90.00000000
_cell_angle_beta   90.00000000
_cell_angle_gamma   90.00000000
_symmetry_Int_Tables_number   1
_chemical_formula_structural   Zr3H12C28(IO4)4
_chemical_formula_sum   'Zr12 H48 C112 I16 O64'
_cell_volume   8776.35692485
_cell_formula_units_Z   4
loop_
 _symmetry_equiv_pos_site_id
 _symmetry_equiv_pos_as_xyz
  1  'x, y, z'
loop_
 _atom_site_type_symbol
 _atom_site_label
 _atom_site_symmetry_multiplicity
 _atom_site_fract_x
 _atom_site_fract_y
 _atom_site_fract_z
 _atom_site_occupancy
  Zr  Zr0  1  0.50000000  0.10048000  0.50000000  1
  Zr  Zr1  1  0.61885000  0.00000000  0.57217000  1
  Zr  Zr2  1  0.00000000  0.50000000  0.10048000  1
  Zr  Zr3  1  0.11885000  0.42783000  0.00000000  1
  Zr  Zr4  1  0.50000000  0.89952000  0.50000000  1
  Zr  Zr5  1  0.61885000  1.00000000  0.42783000  1
  Zr  Zr6  1  0.00000000  0.50000000  0.89952000  1
  Zr  Zr7  1  0.11885000  0.57217000  0.00000000  1
  Zr  Zr8  1  0.38115000  1.00000000  0.42783000  1
  Zr  Zr9  1  0.88115000  0.57217000  0.00000000  1
  Zr  Zr10  1  0.38115000  0.00000000  0.57217000  1
  Zr  Zr11  1  0.88115000  0.42783000  0.00000000  1
  H  H12  1  0.83980000  0.20720000  0.71050000  1
  H  H13  1  0.56520000  0.22950000  0.61780000  1
  H  H14  1  0.78410000  0.13660000  0.65470000  1
  H  H15  1  0.33980000  0.28950000  0.20720000  1
  H  H16  1  0.06520000  0.38220000  0.22950000  1
  H  H17  1  0.28410000  0.34530000  0.13660000  1
  H  H18  1  0.83980000  0.79280000  0.28950000  1
  H  H19  1  0.56520000  0.77050000  0.38220000  1
  H  H20  1  0.78410000  0.86340000  0.34530000  1
  H  H21  1  0.33980000  0.71050000  0.79280000  1
  H  H22  1  0.06520000  0.61780000  0.77050000  1
  H  H23  1  0.28410000  0.65470000  0.86340000  1
  H  H24  1  0.16020000  0.20720000  0.28950000  1
  H  H25  1  0.43480000  0.22950000  0.38220000  1
  H  H26  1  0.21590000  0.13660000  0.34530000  1
  H  H27  1  0.66020000  0.71050000  0.20720000  1
  H  H28  1  0.93480000  0.61780000  0.22950000  1
  H  H29  1  0.71590000  0.65470000  0.13660000  1
  H  H30  1  0.16020000  0.79280000  0.71050000  1
  H  H31  1  0.43480000  0.77050000  0.61780000  1
  H  H32  1  0.21590000  0.86340000  0.65470000  1
  H  H33  1  0.66020000  0.28950000  0.79280000  1
  H  H34  1  0.93480000  0.38220000  0.77050000  1
  H  H35  1  0.71590000  0.34530000  0.86340000  1
  H  H36  1  0.16020000  0.79280000  0.28950000  1
  H  H37  1  0.43480000  0.77050000  0.38220000  1
  H  H38  1  0.21590000  0.86340000  0.34530000  1
  H  H39  1  0.66020000  0.71050000  0.79280000  1
  H  H40  1  0.93480000  0.61780000  0.77050000  1
  H  H41  1  0.71590000  0.65470000  0.86340000  1
  H  H42  1  0.16020000  0.20720000  0.71050000  1
  H  H43  1  0.43480000  0.22950000  0.61780000  1
  H  H44  1  0.21590000  0.13660000  0.65470000  1
  H  H45  1  0.66020000  0.28950000  0.20720000  1
  H  H46  1  0.93480000  0.38220000  0.22950000  1
  H  H47  1  0.71590000  0.34530000  0.13660000  1
  H  H48  1  0.83980000  0.79280000  0.71050000  1
  H  H49  1  0.56520000  0.77050000  0.61780000  1
  H  H50  1  0.78410000  0.86340000  0.65470000  1
  H  H51  1  0.33980000  0.28950000  0.79280000  1
  H  H52  1  0.06520000  0.38220000  0.77050000  1
  H  H53  1  0.28410000  0.34530000  0.86340000  1
  H  H54  1  0.83980000  0.20720000  0.28950000  1
  H  H55  1  0.56520000  0.22950000  0.38220000  1
  H  H56  1  0.78410000  0.13660000  0.34530000  1
  H  H57  1  0.33980000  0.71050000  0.20720000  1
  H  H58  1  0.06520000  0.61780000  0.22950000  1
  H  H59  1  0.28410000  0.65470000  0.13660000  1
  C  C60  1  0.67820000  0.17190000  0.63190000  1
  C  C61  1  0.65390000  0.26690000  0.66967000  1
  C  C62  1  0.78400000  0.21174000  0.69165000  1
  C  C63  1  0.63320000  0.13120000  0.59510000  1
  C  C64  1  0.62090000  0.22490000  0.63658000  1
  C  C65  1  0.73550000  0.26031000  0.69722000  1
  C  C66  1  0.75090000  0.16980000  0.65854000  1
  C  C67  1  0.17820000  0.36810000  0.17190000  1
  C  C68  1  0.15390000  0.33033000  0.26690000  1
  C  C69  1  0.28400000  0.30835000  0.21174000  1
  C  C70  1  0.13320000  0.40490000  0.13120000  1
  C  C71  1  0.12090000  0.36342000  0.22490000  1
  C  C72  1  0.23550000  0.30278000  0.26031000  1
  C  C73  1  0.25090000  0.34146000  0.16980000  1
  C  C74  1  0.67820000  0.82810000  0.36810000  1
  C  C75  1  0.65390000  0.73310000  0.33033000  1
  C  C76  1  0.78400000  0.78826000  0.30835000  1
  C  C77  1  0.63320000  0.86880000  0.40490000  1
  C  C78  1  0.62090000  0.77510000  0.36342000  1
  C  C79  1  0.73550000  0.73969000  0.30278000  1
  C  C80  1  0.75090000  0.83020000  0.34146000  1
  C  C81  1  0.17820000  0.63190000  0.82810000  1
  C  C82  1  0.15390000  0.66967000  0.73310000  1
  C  C83  1  0.28400000  0.69165000  0.78826000  1
  C  C84  1  0.13320000  0.59510000  0.86880000  1
  C  C85  1  0.12090000  0.63658000  0.77510000  1
  C  C86  1  0.23550000  0.69722000  0.73969000  1
  C  C87  1  0.25090000  0.65854000  0.83020000  1
  C  C88  1  0.32180000  0.17190000  0.36810000  1
  C  C89  1  0.34610000  0.26690000  0.33033000  1
  C  C90  1  0.21600000  0.21174000  0.30835000  1
  C  C91  1  0.36680000  0.13120000  0.40490000  1
  C  C92  1  0.37910000  0.22490000  0.36342000  1
  C  C93  1  0.26450000  0.26031000  0.30278000  1
  C  C94  1  0.24910000  0.16980000  0.34146000  1
  C  C95  1  0.82180000  0.63190000  0.17190000  1
  C  C96  1  0.84610000  0.66967000  0.26690000  1
  C  C97  1  0.71600000  0.69165000  0.21174000  1
  C  C98  1  0.86680000  0.59510000  0.13120000  1
  C  C99  1  0.87910000  0.63658000  0.22490000  1
  C  C100  1  0.76450000  0.69722000  0.26031000  1
  C  C101  1  0.74910000  0.65854000  0.16980000  1
  C  C102  1  0.32180000  0.82810000  0.63190000  1
  C  C103  1  0.34610000  0.73310000  0.66967000  1
  C  C104  1  0.21600000  0.78826000  0.69165000  1
  C  C105  1  0.36680000  0.86880000  0.59510000  1
  C  C106  1  0.37910000  0.77510000  0.63658000  1
  C  C107  1  0.26450000  0.73969000  0.69722000  1
  C  C108  1  0.24910000  0.83020000  0.65854000  1
  C  C109  1  0.82180000  0.36810000  0.82810000  1
  C  C110  1  0.84610000  0.33033000  0.73310000  1
  C  C111  1  0.71600000  0.30835000  0.78826000  1
  C  C112  1  0.86680000  0.40490000  0.86880000  1
  C  C113  1  0.87910000  0.36342000  0.77510000  1
  C  C114  1  0.76450000  0.30278000  0.73969000  1
  C  C115  1  0.74910000  0.34146000  0.83020000  1
  C  C116  1  0.32180000  0.82810000  0.36810000  1
  C  C117  1  0.34610000  0.73310000  0.33033000  1
  C  C118  1  0.21600000  0.78826000  0.30835000  1
  C  C119  1  0.36680000  0.86880000  0.40490000  1
  C  C120  1  0.37910000  0.77510000  0.36342000  1
  C  C121  1  0.26450000  0.73969000  0.30278000  1
  C  C122  1  0.24910000  0.83020000  0.34146000  1
  C  C123  1  0.82180000  0.63190000  0.82810000  1
  C  C124  1  0.84610000  0.66967000  0.73310000  1
  C  C125  1  0.71600000  0.69165000  0.78826000  1
  C  C126  1  0.86680000  0.59510000  0.86880000  1
  C  C127  1  0.87910000  0.63658000  0.77510000  1
  C  C128  1  0.76450000  0.69722000  0.73969000  1
  C  C129  1  0.74910000  0.65854000  0.83020000  1
  C  C130  1  0.32180000  0.17190000  0.63190000  1
  C  C131  1  0.34610000  0.26690000  0.66967000  1
  C  C132  1  0.21600000  0.21174000  0.69165000  1
  C  C133  1  0.36680000  0.13120000  0.59510000  1
  C  C134  1  0.37910000  0.22490000  0.63658000  1
  C  C135  1  0.26450000  0.26031000  0.69722000  1
  C  C136  1  0.24910000  0.16980000  0.65854000  1
  C  C137  1  0.82180000  0.36810000  0.17190000  1
  C  C138  1  0.84610000  0.33033000  0.26690000  1
  C  C139  1  0.71600000  0.30835000  0.21174000  1
  C  C140  1  0.86680000  0.40490000  0.13120000  1
  C  C141  1  0.87910000  0.36342000  0.22490000  1
  C  C142  1  0.76450000  0.30278000  0.26031000  1
  C  C143  1  0.74910000  0.34146000  0.16980000  1
  C  C144  1  0.67820000  0.82810000  0.63190000  1
  C  C145  1  0.65390000  0.73310000  0.66967000  1
  C  C146  1  0.78400000  0.78826000  0.69165000  1
  C  C147  1  0.63320000  0.86880000  0.59510000  1
  C  C148  1  0.62090000  0.77510000  0.63658000  1
  C  C149  1  0.73550000  0.73969000  0.69722000  1
  C  C150  1  0.75090000  0.83020000  0.65854000  1
  C  C151  1  0.17820000  0.36810000  0.82810000  1
  C  C152  1  0.15390000  0.33033000  0.73310000  1
  C  C153  1  0.28400000  0.30835000  0.78826000  1
  C  C154  1  0.13320000  0.40490000  0.86880000  1
  C  C155  1  0.12090000  0.36342000  0.77510000  1
  C  C156  1  0.23550000  0.30278000  0.73969000  1
  C  C157  1  0.25090000  0.34146000  0.83020000  1
  C  C158  1  0.67820000  0.17190000  0.36810000  1
  C  C159  1  0.65390000  0.26690000  0.33033000  1
  C  C160  1  0.78400000  0.21174000  0.30835000  1
  C  C161  1  0.63320000  0.13120000  0.40490000  1
  C  C162  1  0.62090000  0.22490000  0.36342000  1
  C  C163  1  0.73550000  0.26031000  0.30278000  1
  C  C164  1  0.75090000  0.16980000  0.34146000  1
  C  C165  1  0.17820000  0.63190000  0.17190000  1
  C  C166  1  0.15390000  0.66967000  0.26690000  1
  C  C167  1  0.28400000  0.69165000  0.21174000  1
  C  C168  1  0.13320000  0.59510000  0.13120000  1
  C  C169  1  0.12090000  0.63658000  0.22490000  1
  C  C170  1  0.23550000  0.69722000  0.26031000  1
  C  C171  1  0.25090000  0.65854000  0.16980000  1
  I  I172  1  0.57190000  0.33760000  0.67340000  1
  I  I173  1  0.07190000  0.32660000  0.33760000  1
  I  I174  1  0.57190000  0.66240000  0.32660000  1
  I  I175  1  0.07190000  0.67340000  0.66240000  1
  I  I176  1  0.42810000  0.33760000  0.32660000  1
  I  I177  1  0.92810000  0.67340000  0.33760000  1
  I  I178  1  0.42810000  0.66240000  0.67340000  1
  I  I179  1  0.92810000  0.32660000  0.66240000  1
  I  I180  1  0.42810000  0.66240000  0.32660000  1
  I  I181  1  0.92810000  0.67340000  0.66240000  1
  I  I182  1  0.42810000  0.33760000  0.67340000  1
  I  I183  1  0.92810000  0.32660000  0.33760000  1
  I  I184  1  0.57190000  0.66240000  0.67340000  1
  I  I185  1  0.07190000  0.32660000  0.66240000  1
  I  I186  1  0.57190000  0.33760000  0.32660000  1
  I  I187  1  0.07190000  0.67340000  0.33760000  1
  O  O188  1  0.58870000  0.14830000  0.55400000  1
  O  O189  1  0.65010000  0.08190000  0.60900000  1
  O  O190  1  0.60830000  0.00000000  0.66480000  1
  O  O191  1  0.77440000  0.00000000  0.56560000  1
  O  O192  1  0.61810000  0.04810000  0.50000000  1
  O  O193  1  0.50000000  0.04920000  0.57190000  1
  O  O194  1  0.08870000  0.44600000  0.14830000  1
  O  O195  1  0.15010000  0.39100000  0.08190000  1
  O  O196  1  0.10830000  0.33520000  0.00000000  1
  O  O197  1  0.27440000  0.43440000  0.00000000  1
  O  O198  1  0.11810000  0.50000000  0.04810000  1
  O  O199  1  1.00000000  0.42810000  0.04920000  1
  O  O200  1  0.58870000  0.85170000  0.44600000  1
  O  O201  1  0.65010000  0.91810000  0.39100000  1
  O  O202  1  0.60830000  0.00000000  0.33520000  1
  O  O203  1  0.77440000  1.00000000  0.43440000  1
  O  O204  1  0.61810000  0.95190000  0.50000000  1
  O  O205  1  0.50000000  0.95080000  0.42810000  1
  O  O206  1  0.08870000  0.55400000  0.85170000  1
  O  O207  1  0.15010000  0.60900000  0.91810000  1
  O  O208  1  0.10830000  0.66480000  0.00000000  1
  O  O209  1  0.27440000  0.56560000  0.00000000  1
  O  O210  1  0.11810000  0.50000000  0.95190000  1
  O  O211  1  0.00000000  0.57190000  0.95080000  1
  O  O212  1  0.41130000  0.14830000  0.44600000  1
  O  O213  1  0.34990000  0.08190000  0.39100000  1
  O  O214  1  0.39170000  0.00000000  0.33520000  1
  O  O215  1  0.22560000  1.00000000  0.43440000  1
  O  O216  1  0.38190000  0.04810000  0.50000000  1
  O  O217  1  0.50000000  0.04920000  0.42810000  1
  O  O218  1  0.91130000  0.55400000  0.14830000  1
  O  O219  1  0.84990000  0.60900000  0.08190000  1
  O  O220  1  0.89170000  0.66480000  0.00000000  1
  O  O221  1  0.72560000  0.56560000  0.00000000  1
  O  O222  1  0.88190000  0.50000000  0.04810000  1
  O  O223  1  1.00000000  0.57190000  0.04920000  1
  O  O224  1  0.41130000  0.85170000  0.55400000  1
  O  O225  1  0.34990000  0.91810000  0.60900000  1
  O  O226  1  0.39170000  0.00000000  0.66480000  1
  O  O227  1  0.22560000  0.00000000  0.56560000  1
  O  O228  1  0.38190000  0.95190000  0.50000000  1
  O  O229  1  0.50000000  0.95080000  0.57190000  1
  O  O230  1  0.91130000  0.44600000  0.85170000  1
  O  O231  1  0.84990000  0.39100000  0.91810000  1
  O  O232  1  0.89170000  0.33520000  0.00000000  1
  O  O233  1  0.72560000  0.43440000  0.00000000  1
  O  O234  1  0.88190000  0.50000000  0.95190000  1
  O  O235  1  0.00000000  0.42810000  0.95080000  1
  O  O236  1  0.41130000  0.85170000  0.44600000  1
  O  O237  1  0.34990000  0.91810000  0.39100000  1
  O  O238  1  0.91130000  0.55400000  0.85170000  1
  O  O239  1  0.84990000  0.60900000  0.91810000  1
  O  O240  1  0.41130000  0.14830000  0.55400000  1
  O  O241  1  0.34990000  0.08190000  0.60900000  1
  O  O242  1  0.91130000  0.44600000  0.14830000  1
  O  O243  1  0.84990000  0.39100000  0.08190000  1
  O  O244  1  0.58870000  0.85170000  0.55400000  1
  O  O245  1  0.65010000  0.91810000  0.60900000  1
  O  O246  1  0.08870000  0.44600000  0.85170000  1
  O  O247  1  0.15010000  0.39100000  0.91810000  1
  O  O248  1  0.58870000  0.14830000  0.44600000  1
  O  O249  1  0.65010000  0.08190000  0.39100000  1
  O  O250  1  0.08870000  0.55400000  0.14830000  1
  O  O251  1  0.15010000  0.60900000  0.08190000  1
