# generated using pymatgen
data_Zr3H12C32(OF)12
_symmetry_space_group_name_H-M   'P 1'
_cell_length_a   12.08600000
_cell_length_b   34.88200000
_cell_length_c   34.88200000
_cell_angle_alpha   90.00000000
_cell_angle_beta   90.00000000
_cell_angle_gamma   90.00000000
_symmetry_Int_Tables_number   1
_chemical_formula_structural   Zr3H12C32(OF)12
_chemical_formula_sum   'Zr24 H96 C256 O96 F96'
_cell_volume   14705.68792546
_cell_formula_units_Z   8
loop_
 _symmetry_equiv_pos_site_id
 _symmetry_equiv_pos_as_xyz
  1  'x, y, z'
loop_
 _atom_site_type_symbol
 _atom_site_label
 _atom_site_symmetry_multiplicity
 _atom_site_fract_x
 _atom_site_fract_y
 _atom_site_fract_z
 _atom_site_occupancy
  Zr  Zr0  1  0.40580000  0.45499000  0.45499000  1
  Zr  Zr1  1  0.68375000  0.47683000  0.47683000  1
  Zr  Zr2  1  0.40580000  0.04501000  0.04501000  1
  Zr  Zr3  1  0.68375000  0.02317000  0.02317000  1
  Zr  Zr4  1  0.90580000  0.04501000  0.45499000  1
  Zr  Zr5  1  0.18375000  0.02317000  0.47683000  1
  Zr  Zr6  1  0.90580000  0.45499000  0.04501000  1
  Zr  Zr7  1  0.18375000  0.47683000  0.02317000  1
  Zr  Zr8  1  0.09420000  0.54501000  0.95499000  1
  Zr  Zr9  1  0.81625000  0.52317000  0.97683000  1
  Zr  Zr10  1  0.09420000  0.95499000  0.54501000  1
  Zr  Zr11  1  0.81625000  0.97683000  0.52317000  1
  Zr  Zr12  1  0.59420000  0.95499000  0.95499000  1
  Zr  Zr13  1  0.31625000  0.97683000  0.97683000  1
  Zr  Zr14  1  0.59420000  0.54501000  0.54501000  1
  Zr  Zr15  1  0.31625000  0.52317000  0.52317000  1
  Zr  Zr16  1  0.50000000  0.45021000  0.54979000  1
  Zr  Zr17  1  0.50000000  0.04979000  0.95021000  1
  Zr  Zr18  1  0.00000000  0.95021000  0.45021000  1
  Zr  Zr19  1  0.00000000  0.54979000  0.04979000  1
  Zr  Zr20  1  0.50000000  0.54979000  0.45021000  1
  Zr  Zr21  1  0.50000000  0.95021000  0.04979000  1
  Zr  Zr22  1  0.00000000  0.04979000  0.54979000  1
  Zr  Zr23  1  0.00000000  0.45021000  0.95021000  1
  H  H24  1  0.41610000  0.33220000  0.56830000  1
  H  H25  1  0.31950000  0.32710000  0.45720000  1
  H  H26  1  0.11700000  0.16110000  0.55420000  1
  H  H27  1  0.16990000  0.22530000  0.54760000  1
  H  H28  1  0.40070000  0.12770000  0.50200000  1
  H  H29  1  0.29130000  0.26100000  0.46320000  1
  H  H30  1  0.41610000  0.16780000  0.93170000  1
  H  H31  1  0.31950000  0.17290000  0.04280000  1
  H  H32  1  0.11700000  0.33890000  0.94580000  1
  H  H33  1  0.16990000  0.27470000  0.95240000  1
  H  H34  1  0.40070000  0.37230000  0.99800000  1
  H  H35  1  0.29130000  0.23900000  0.03680000  1
  H  H36  1  0.91610000  0.93170000  0.33220000  1
  H  H37  1  0.81950000  0.04280000  0.32710000  1
  H  H38  1  0.61700000  0.94580000  0.16110000  1
  H  H39  1  0.66990000  0.95240000  0.22530000  1
  H  H40  1  0.90070000  0.99800000  0.12770000  1
  H  H41  1  0.79130000  0.03680000  0.26100000  1
  H  H42  1  0.91610000  0.56830000  0.16780000  1
  H  H43  1  0.81950000  0.45720000  0.17290000  1
  H  H44  1  0.61700000  0.55420000  0.33890000  1
  H  H45  1  0.66990000  0.54760000  0.27470000  1
  H  H46  1  0.90070000  0.50200000  0.37230000  1
  H  H47  1  0.79130000  0.46320000  0.23900000  1
  H  H48  1  0.08390000  0.66780000  0.06830000  1
  H  H49  1  0.18050000  0.67290000  0.95720000  1
  H  H50  1  0.38300000  0.83890000  0.05420000  1
  H  H51  1  0.33010000  0.77470000  0.04760000  1
  H  H52  1  0.09930000  0.87230000  0.00200000  1
  H  H53  1  0.20870000  0.73900000  0.96320000  1
  H  H54  1  0.08390000  0.83220000  0.43170000  1
  H  H55  1  0.18050000  0.82710000  0.54280000  1
  H  H56  1  0.38300000  0.66110000  0.44580000  1
  H  H57  1  0.33010000  0.72530000  0.45240000  1
  H  H58  1  0.09930000  0.62770000  0.49800000  1
  H  H59  1  0.20870000  0.76100000  0.53680000  1
  H  H60  1  0.58390000  0.06830000  0.83220000  1
  H  H61  1  0.68050000  0.95720000  0.82710000  1
  H  H62  1  0.88300000  0.05420000  0.66110000  1
  H  H63  1  0.83010000  0.04760000  0.72530000  1
  H  H64  1  0.59930000  0.00200000  0.62770000  1
  H  H65  1  0.70870000  0.96320000  0.76100000  1
  H  H66  1  0.58390000  0.43170000  0.66780000  1
  H  H67  1  0.68050000  0.54280000  0.67290000  1
  H  H68  1  0.88300000  0.44580000  0.83890000  1
  H  H69  1  0.83010000  0.45240000  0.77470000  1
  H  H70  1  0.59930000  0.49800000  0.87230000  1
  H  H71  1  0.70870000  0.53680000  0.73900000  1
  H  H72  1  0.58390000  0.66780000  0.43170000  1
  H  H73  1  0.68050000  0.67290000  0.54280000  1
  H  H74  1  0.88300000  0.83890000  0.44580000  1
  H  H75  1  0.83010000  0.77470000  0.45240000  1
  H  H76  1  0.59930000  0.87230000  0.49800000  1
  H  H77  1  0.70870000  0.73900000  0.53680000  1
  H  H78  1  0.58390000  0.83220000  0.06830000  1
  H  H79  1  0.68050000  0.82710000  0.95720000  1
  H  H80  1  0.88300000  0.66110000  0.05420000  1
  H  H81  1  0.83010000  0.72530000  0.04760000  1
  H  H82  1  0.59930000  0.62770000  0.00200000  1
  H  H83  1  0.70870000  0.76100000  0.96320000  1
  H  H84  1  0.08390000  0.06830000  0.66780000  1
  H  H85  1  0.18050000  0.95720000  0.67290000  1
  H  H86  1  0.38300000  0.05420000  0.83890000  1
  H  H87  1  0.33010000  0.04760000  0.77470000  1
  H  H88  1  0.09930000  0.00200000  0.87230000  1
  H  H89  1  0.20870000  0.96320000  0.73900000  1
  H  H90  1  0.08390000  0.43170000  0.83220000  1
  H  H91  1  0.18050000  0.54280000  0.82710000  1
  H  H92  1  0.38300000  0.44580000  0.66110000  1
  H  H93  1  0.33010000  0.45240000  0.72530000  1
  H  H94  1  0.09930000  0.49800000  0.62770000  1
  H  H95  1  0.20870000  0.53680000  0.76100000  1
  H  H96  1  0.91610000  0.33220000  0.93170000  1
  H  H97  1  0.81950000  0.32710000  0.04280000  1
  H  H98  1  0.61700000  0.16110000  0.94580000  1
  H  H99  1  0.66990000  0.22530000  0.95240000  1
  H  H100  1  0.90070000  0.12770000  0.99800000  1
  H  H101  1  0.79130000  0.26100000  0.03680000  1
  H  H102  1  0.91610000  0.16780000  0.56830000  1
  H  H103  1  0.81950000  0.17290000  0.45720000  1
  H  H104  1  0.61700000  0.33890000  0.55420000  1
  H  H105  1  0.66990000  0.27470000  0.54760000  1
  H  H106  1  0.90070000  0.37230000  0.50200000  1
  H  H107  1  0.79130000  0.23900000  0.46320000  1
  H  H108  1  0.41610000  0.93170000  0.16780000  1
  H  H109  1  0.31950000  0.04280000  0.17290000  1
  H  H110  1  0.11700000  0.94580000  0.33890000  1
  H  H111  1  0.16990000  0.95240000  0.27470000  1
  H  H112  1  0.40070000  0.99800000  0.37230000  1
  H  H113  1  0.29130000  0.03680000  0.23900000  1
  H  H114  1  0.41610000  0.56830000  0.33220000  1
  H  H115  1  0.31950000  0.45720000  0.32710000  1
  H  H116  1  0.11700000  0.55420000  0.16110000  1
  H  H117  1  0.16990000  0.54760000  0.22530000  1
  H  H118  1  0.40070000  0.50200000  0.12770000  1
  H  H119  1  0.29130000  0.46320000  0.26100000  1
  C  C120  1  0.39020000  0.37852000  0.51010000  1
  C  C121  1  0.37050000  0.33588000  0.51221000  1
  C  C122  1  0.39080000  0.31775000  0.54699000  1
  C  C123  1  0.33700000  0.25734000  0.51930000  1
  C  C124  1  0.33340000  0.31474000  0.48098000  1
  C  C125  1  0.37400000  0.27848000  0.55054000  1
  C  C126  1  0.31660000  0.27547000  0.48451000  1
  C  C127  1  0.21830000  0.09713000  0.53319000  1
  C  C128  1  0.25380000  0.13833000  0.52872000  1
  C  C129  1  0.18540000  0.16734000  0.54226000  1
  C  C130  1  0.21680000  0.20547000  0.53838000  1
  C  C131  1  0.31680000  0.21462000  0.52095000  1
  C  C132  1  0.38530000  0.18561000  0.50741000  1
  C  C133  1  0.35380000  0.14748000  0.51130000  1
  C  C134  1  0.48470000  0.19570000  0.49010000  1
  C  C135  1  0.39730000  0.26220000  0.58780000  1
  C  C136  1  0.39020000  0.12148000  0.98990000  1
  C  C137  1  0.37050000  0.16412000  0.98779000  1
  C  C138  1  0.39080000  0.18225000  0.95301000  1
  C  C139  1  0.33700000  0.24266000  0.98070000  1
  C  C140  1  0.33340000  0.18526000  0.01902000  1
  C  C141  1  0.37400000  0.22152000  0.94946000  1
  C  C142  1  0.31660000  0.22453000  0.01549000  1
  C  C143  1  0.21830000  0.40287000  0.96681000  1
  C  C144  1  0.25380000  0.36167000  0.97128000  1
  C  C145  1  0.18540000  0.33266000  0.95774000  1
  C  C146  1  0.21680000  0.29453000  0.96162000  1
  C  C147  1  0.31680000  0.28538000  0.97905000  1
  C  C148  1  0.38530000  0.31439000  0.99259000  1
  C  C149  1  0.35380000  0.35252000  0.98870000  1
  C  C150  1  0.48470000  0.30430000  0.00990000  1
  C  C151  1  0.39730000  0.23780000  0.91220000  1
  C  C152  1  0.89020000  0.98990000  0.37852000  1
  C  C153  1  0.87050000  0.98779000  0.33588000  1
  C  C154  1  0.89080000  0.95301000  0.31775000  1
  C  C155  1  0.83700000  0.98070000  0.25734000  1
  C  C156  1  0.83340000  0.01902000  0.31474000  1
  C  C157  1  0.87400000  0.94946000  0.27848000  1
  C  C158  1  0.81660000  0.01549000  0.27547000  1
  C  C159  1  0.71830000  0.96681000  0.09713000  1
  C  C160  1  0.75380000  0.97128000  0.13833000  1
  C  C161  1  0.68540000  0.95774000  0.16734000  1
  C  C162  1  0.71680000  0.96162000  0.20547000  1
  C  C163  1  0.81680000  0.97905000  0.21462000  1
  C  C164  1  0.88530000  0.99259000  0.18561000  1
  C  C165  1  0.85380000  0.98870000  0.14748000  1
  C  C166  1  0.98470000  0.00990000  0.19570000  1
  C  C167  1  0.89730000  0.91220000  0.26220000  1
  C  C168  1  0.89020000  0.51010000  0.12148000  1
  C  C169  1  0.87050000  0.51221000  0.16412000  1
  C  C170  1  0.89080000  0.54699000  0.18225000  1
  C  C171  1  0.83700000  0.51930000  0.24266000  1
  C  C172  1  0.83340000  0.48098000  0.18526000  1
  C  C173  1  0.87400000  0.55054000  0.22152000  1
  C  C174  1  0.81660000  0.48451000  0.22453000  1
  C  C175  1  0.71830000  0.53319000  0.40287000  1
  C  C176  1  0.75380000  0.52872000  0.36167000  1
  C  C177  1  0.68540000  0.54226000  0.33266000  1
  C  C178  1  0.71680000  0.53838000  0.29453000  1
  C  C179  1  0.81680000  0.52095000  0.28538000  1
  C  C180  1  0.88530000  0.50741000  0.31439000  1
  C  C181  1  0.85380000  0.51130000  0.35252000  1
  C  C182  1  0.98470000  0.49010000  0.30430000  1
  C  C183  1  0.89730000  0.58780000  0.23780000  1
  C  C184  1  0.10980000  0.62148000  0.01010000  1
  C  C185  1  0.12950000  0.66412000  0.01221000  1
  C  C186  1  0.10920000  0.68225000  0.04699000  1
  C  C187  1  0.16300000  0.74266000  0.01930000  1
  C  C188  1  0.16660000  0.68526000  0.98098000  1
  C  C189  1  0.12600000  0.72152000  0.05054000  1
  C  C190  1  0.18340000  0.72453000  0.98451000  1
  C  C191  1  0.28170000  0.90287000  0.03319000  1
  C  C192  1  0.24620000  0.86167000  0.02872000  1
  C  C193  1  0.31460000  0.83266000  0.04226000  1
  C  C194  1  0.28320000  0.79453000  0.03838000  1
  C  C195  1  0.18320000  0.78538000  0.02095000  1
  C  C196  1  0.11470000  0.81439000  0.00741000  1
  C  C197  1  0.14620000  0.85252000  0.01130000  1
  C  C198  1  0.01530000  0.80430000  0.99010000  1
  C  C199  1  0.10270000  0.73780000  0.08780000  1
  C  C200  1  0.10980000  0.87852000  0.48990000  1
  C  C201  1  0.12950000  0.83588000  0.48779000  1
  C  C202  1  0.10920000  0.81775000  0.45301000  1
  C  C203  1  0.16300000  0.75734000  0.48070000  1
  C  C204  1  0.16660000  0.81474000  0.51902000  1
  C  C205  1  0.12600000  0.77848000  0.44946000  1
  C  C206  1  0.18340000  0.77547000  0.51549000  1
  C  C207  1  0.28170000  0.59713000  0.46681000  1
  C  C208  1  0.24620000  0.63833000  0.47128000  1
  C  C209  1  0.31460000  0.66734000  0.45774000  1
  C  C210  1  0.28320000  0.70547000  0.46162000  1
  C  C211  1  0.18320000  0.71462000  0.47905000  1
  C  C212  1  0.11470000  0.68561000  0.49259000  1
  C  C213  1  0.14620000  0.64748000  0.48870000  1
  C  C214  1  0.01530000  0.69570000  0.50990000  1
  C  C215  1  0.10270000  0.76220000  0.41220000  1
  C  C216  1  0.60980000  0.01010000  0.87852000  1
  C  C217  1  0.62950000  0.01221000  0.83588000  1
  C  C218  1  0.60920000  0.04699000  0.81775000  1
  C  C219  1  0.66300000  0.01930000  0.75734000  1
  C  C220  1  0.66666667  0.98098000  0.81474000  1
  C  C221  1  0.62600000  0.05054000  0.77848000  1
  C  C222  1  0.68340000  0.98451000  0.77547000  1
  C  C223  1  0.78170000  0.03319000  0.59713000  1
  C  C224  1  0.74620000  0.02872000  0.63833000  1
  C  C225  1  0.81460000  0.04226000  0.66734000  1
  C  C226  1  0.78320000  0.03838000  0.70547000  1
  C  C227  1  0.68320000  0.02095000  0.71462000  1
  C  C228  1  0.61470000  0.00741000  0.68561000  1
  C  C229  1  0.64620000  0.01130000  0.64748000  1
  C  C230  1  0.51530000  0.99010000  0.69570000  1
  C  C231  1  0.60270000  0.08780000  0.76220000  1
  C  C232  1  0.60980000  0.48990000  0.62148000  1
  C  C233  1  0.62950000  0.48779000  0.66412000  1
  C  C234  1  0.60920000  0.45301000  0.68225000  1
  C  C235  1  0.66300000  0.48070000  0.74266000  1
  C  C236  1  0.66666667  0.51902000  0.68526000  1
  C  C237  1  0.62600000  0.44946000  0.72152000  1
  C  C238  1  0.68340000  0.51549000  0.72453000  1
  C  C239  1  0.78170000  0.46681000  0.90287000  1
  C  C240  1  0.74620000  0.47128000  0.86167000  1
  C  C241  1  0.81460000  0.45774000  0.83266000  1
  C  C242  1  0.78320000  0.46162000  0.79453000  1
  C  C243  1  0.68320000  0.47905000  0.78538000  1
  C  C244  1  0.61470000  0.49259000  0.81439000  1
  C  C245  1  0.64620000  0.48870000  0.85252000  1
  C  C246  1  0.51530000  0.50990000  0.80430000  1
  C  C247  1  0.60270000  0.41220000  0.73780000  1
  C  C248  1  0.60980000  0.62148000  0.48990000  1
  C  C249  1  0.62950000  0.66412000  0.48779000  1
  C  C250  1  0.60920000  0.68225000  0.45301000  1
  C  C251  1  0.66300000  0.74266000  0.48070000  1
  C  C252  1  0.66666667  0.68526000  0.51902000  1
  C  C253  1  0.62600000  0.72152000  0.44946000  1
  C  C254  1  0.68340000  0.72453000  0.51549000  1
  C  C255  1  0.78170000  0.90287000  0.46681000  1
  C  C256  1  0.74620000  0.86167000  0.47128000  1
  C  C257  1  0.81460000  0.83266000  0.45774000  1
  C  C258  1  0.78320000  0.79453000  0.46162000  1
  C  C259  1  0.68320000  0.78538000  0.47905000  1
  C  C260  1  0.61470000  0.81439000  0.49259000  1
  C  C261  1  0.64620000  0.85252000  0.48870000  1
  C  C262  1  0.51530000  0.80430000  0.50990000  1
  C  C263  1  0.60270000  0.73780000  0.41220000  1
  C  C264  1  0.60980000  0.87852000  0.01010000  1
  C  C265  1  0.62950000  0.83588000  0.01221000  1
  C  C266  1  0.60920000  0.81775000  0.04699000  1
  C  C267  1  0.66300000  0.75734000  0.01930000  1
  C  C268  1  0.66666667  0.81474000  0.98098000  1
  C  C269  1  0.62600000  0.77848000  0.05054000  1
  C  C270  1  0.68340000  0.77547000  0.98451000  1
  C  C271  1  0.78170000  0.59713000  0.03319000  1
  C  C272  1  0.74620000  0.63833000  0.02872000  1
  C  C273  1  0.81460000  0.66734000  0.04226000  1
  C  C274  1  0.78320000  0.70547000  0.03838000  1
  C  C275  1  0.68320000  0.71462000  0.02095000  1
  C  C276  1  0.61470000  0.68561000  0.00741000  1
  C  C277  1  0.64620000  0.64748000  0.01130000  1
  C  C278  1  0.51530000  0.69570000  0.99010000  1
  C  C279  1  0.60270000  0.76220000  0.08780000  1
  C  C280  1  0.10980000  0.01010000  0.62148000  1
  C  C281  1  0.12950000  0.01221000  0.66412000  1
  C  C282  1  0.10920000  0.04699000  0.68225000  1
  C  C283  1  0.16300000  0.01930000  0.74266000  1
  C  C284  1  0.16660000  0.98098000  0.68526000  1
  C  C285  1  0.12600000  0.05054000  0.72152000  1
  C  C286  1  0.18340000  0.98451000  0.72453000  1
  C  C287  1  0.28170000  0.03319000  0.90287000  1
  C  C288  1  0.24620000  0.02872000  0.86167000  1
  C  C289  1  0.31460000  0.04226000  0.83266000  1
  C  C290  1  0.28320000  0.03838000  0.79453000  1
  C  C291  1  0.18320000  0.02095000  0.78538000  1
  C  C292  1  0.11470000  0.00741000  0.81439000  1
  C  C293  1  0.14620000  0.01130000  0.85252000  1
  C  C294  1  0.01530000  0.99010000  0.80430000  1
  C  C295  1  0.10270000  0.08780000  0.73780000  1
  C  C296  1  0.10980000  0.48990000  0.87852000  1
  C  C297  1  0.12950000  0.48779000  0.83588000  1
  C  C298  1  0.10920000  0.45301000  0.81775000  1
  C  C299  1  0.16300000  0.48070000  0.75734000  1
  C  C300  1  0.16660000  0.51902000  0.81474000  1
  C  C301  1  0.12600000  0.44946000  0.77848000  1
  C  C302  1  0.18340000  0.51549000  0.77547000  1
  C  C303  1  0.28170000  0.46681000  0.59713000  1
  C  C304  1  0.24620000  0.47128000  0.63833000  1
  C  C305  1  0.31460000  0.45774000  0.66734000  1
  C  C306  1  0.28320000  0.46162000  0.70547000  1
  C  C307  1  0.18320000  0.47905000  0.71462000  1
  C  C308  1  0.11470000  0.49259000  0.68561000  1
  C  C309  1  0.14620000  0.48870000  0.64748000  1
  C  C310  1  0.01530000  0.50990000  0.69570000  1
  C  C311  1  0.10270000  0.41220000  0.76220000  1
  C  C312  1  0.89020000  0.37852000  0.98990000  1
  C  C313  1  0.87050000  0.33588000  0.98779000  1
  C  C314  1  0.89080000  0.31775000  0.95301000  1
  C  C315  1  0.83700000  0.25734000  0.98070000  1
  C  C316  1  0.83340000  0.31474000  0.01902000  1
  C  C317  1  0.87400000  0.27848000  0.94946000  1
  C  C318  1  0.81660000  0.27547000  0.01549000  1
  C  C319  1  0.71830000  0.09713000  0.96681000  1
  C  C320  1  0.75380000  0.13833000  0.97128000  1
  C  C321  1  0.68540000  0.16734000  0.95774000  1
  C  C322  1  0.71680000  0.20547000  0.96162000  1
  C  C323  1  0.81680000  0.21462000  0.97905000  1
  C  C324  1  0.88530000  0.18561000  0.99259000  1
  C  C325  1  0.85380000  0.14748000  0.98870000  1
  C  C326  1  0.98470000  0.19570000  0.00990000  1
  C  C327  1  0.89730000  0.26220000  0.91220000  1
  C  C328  1  0.89020000  0.12148000  0.51010000  1
  C  C329  1  0.87050000  0.16412000  0.51221000  1
  C  C330  1  0.89080000  0.18225000  0.54699000  1
  C  C331  1  0.83700000  0.24266000  0.51930000  1
  C  C332  1  0.83340000  0.18526000  0.48098000  1
  C  C333  1  0.87400000  0.22152000  0.55054000  1
  C  C334  1  0.81660000  0.22453000  0.48451000  1
  C  C335  1  0.71830000  0.40287000  0.53319000  1
  C  C336  1  0.75380000  0.36167000  0.52872000  1
  C  C337  1  0.68540000  0.33266000  0.54226000  1
  C  C338  1  0.71680000  0.29453000  0.53838000  1
  C  C339  1  0.81680000  0.28538000  0.52095000  1
  C  C340  1  0.88530000  0.31439000  0.50741000  1
  C  C341  1  0.85380000  0.35252000  0.51130000  1
  C  C342  1  0.98470000  0.30430000  0.49010000  1
  C  C343  1  0.89730000  0.23780000  0.58780000  1
  C  C344  1  0.39020000  0.98990000  0.12148000  1
  C  C345  1  0.37050000  0.98779000  0.16412000  1
  C  C346  1  0.39080000  0.95301000  0.18225000  1
  C  C347  1  0.33700000  0.98070000  0.24266000  1
  C  C348  1  0.33340000  0.01902000  0.18526000  1
  C  C349  1  0.37400000  0.94946000  0.22152000  1
  C  C350  1  0.31660000  0.01549000  0.22453000  1
  C  C351  1  0.21830000  0.96681000  0.40287000  1
  C  C352  1  0.25380000  0.97128000  0.36167000  1
  C  C353  1  0.18540000  0.95774000  0.33266000  1
  C  C354  1  0.21680000  0.96162000  0.29453000  1
  C  C355  1  0.31680000  0.97905000  0.28538000  1
  C  C356  1  0.38530000  0.99259000  0.31439000  1
  C  C357  1  0.35380000  0.98870000  0.35252000  1
  C  C358  1  0.48470000  0.00990000  0.30430000  1
  C  C359  1  0.39730000  0.91220000  0.23780000  1
  C  C360  1  0.39020000  0.51010000  0.37852000  1
  C  C361  1  0.37050000  0.51221000  0.33588000  1
  C  C362  1  0.39080000  0.54699000  0.31775000  1
  C  C363  1  0.33700000  0.51930000  0.25734000  1
  C  C364  1  0.33340000  0.48098000  0.31474000  1
  C  C365  1  0.37400000  0.55054000  0.27848000  1
  C  C366  1  0.31660000  0.48451000  0.27547000  1
  C  C367  1  0.21830000  0.53319000  0.09713000  1
  C  C368  1  0.25380000  0.52872000  0.13833000  1
  C  C369  1  0.18540000  0.54226000  0.16734000  1
  C  C370  1  0.21680000  0.53838000  0.20547000  1
  C  C371  1  0.31680000  0.52095000  0.21462000  1
  C  C372  1  0.38530000  0.50741000  0.18561000  1
  C  C373  1  0.35380000  0.51130000  0.14748000  1
  C  C374  1  0.48470000  0.49010000  0.19570000  1
  C  C375  1  0.39730000  0.58780000  0.26220000  1
  O  O376  1  0.42940000  0.39455000  0.53941000  1
  O  O377  1  0.36810000  0.39537000  0.47880000  1
  O  O378  1  0.25990000  0.07391000  0.50773000  1
  O  O379  1  0.13790000  0.09060000  0.55443000  1
  O  O380  1  0.54290000  0.44070000  0.48970000  1
  O  O381  1  0.64050000  0.48595000  0.53520000  1
  O  O382  1  0.42940000  0.10545000  0.96059000  1
  O  O383  1  0.36810000  0.10463000  0.02120000  1
  O  O384  1  0.25990000  0.42609000  0.99227000  1
  O  O385  1  0.13790000  0.40940000  0.94557000  1
  O  O386  1  0.54290000  0.05930000  0.01030000  1
  O  O387  1  0.64050000  0.01405000  0.96480000  1
  O  O388  1  0.92940000  0.96059000  0.39455000  1
  O  O389  1  0.86810000  0.02120000  0.39537000  1
  O  O390  1  0.75990000  0.99227000  0.07391000  1
  O  O391  1  0.63790000  0.94557000  0.09060000  1
  O  O392  1  0.04290000  0.01030000  0.44070000  1
  O  O393  1  0.14050000  0.96480000  0.48595000  1
  O  O394  1  0.92940000  0.53941000  0.10545000  1
  O  O395  1  0.86810000  0.47880000  0.10463000  1
  O  O396  1  0.75990000  0.50773000  0.42609000  1
  O  O397  1  0.63790000  0.55443000  0.40940000  1
  O  O398  1  0.04290000  0.48970000  0.05930000  1
  O  O399  1  0.14050000  0.53520000  0.01405000  1
  O  O400  1  0.07060000  0.60545000  0.03941000  1
  O  O401  1  0.13190000  0.60463000  0.97880000  1
  O  O402  1  0.24010000  0.92609000  0.00773000  1
  O  O403  1  0.36210000  0.90940000  0.05443000  1
  O  O404  1  0.95710000  0.55930000  0.98970000  1
  O  O405  1  0.85950000  0.51405000  0.03520000  1
  O  O406  1  0.07060000  0.89455000  0.46059000  1
  O  O407  1  0.13190000  0.89537000  0.52120000  1
  O  O408  1  0.24010000  0.57391000  0.49227000  1
  O  O409  1  0.36210000  0.59060000  0.44557000  1
  O  O410  1  0.95710000  0.94070000  0.51030000  1
  O  O411  1  0.85950000  0.98595000  0.46480000  1
  O  O412  1  0.57060000  0.03941000  0.89455000  1
  O  O413  1  0.63190000  0.97880000  0.89537000  1
  O  O414  1  0.74010000  0.00773000  0.57391000  1
  O  O415  1  0.86210000  0.05443000  0.59060000  1
  O  O416  1  0.45710000  0.98970000  0.94070000  1
  O  O417  1  0.35950000  0.03520000  0.98595000  1
  O  O418  1  0.57060000  0.46059000  0.60545000  1
  O  O419  1  0.63190000  0.52120000  0.60463000  1
  O  O420  1  0.74010000  0.49227000  0.92609000  1
  O  O421  1  0.86210000  0.44557000  0.90940000  1
  O  O422  1  0.45710000  0.51030000  0.55930000  1
  O  O423  1  0.35950000  0.46480000  0.51405000  1
  O  O424  1  0.57060000  0.60545000  0.46059000  1
  O  O425  1  0.63190000  0.60463000  0.52120000  1
  O  O426  1  0.74010000  0.92609000  0.49227000  1
  O  O427  1  0.86210000  0.90940000  0.44557000  1
  O  O428  1  0.45710000  0.55930000  0.51030000  1
  O  O429  1  0.35950000  0.51405000  0.46480000  1
  O  O430  1  0.57060000  0.89455000  0.03941000  1
  O  O431  1  0.63190000  0.89537000  0.97880000  1
  O  O432  1  0.74010000  0.57391000  0.00773000  1
  O  O433  1  0.86210000  0.59060000  0.05443000  1
  O  O434  1  0.45710000  0.94070000  0.98970000  1
  O  O435  1  0.35950000  0.98595000  0.03520000  1
  O  O436  1  0.07060000  0.03941000  0.60545000  1
  O  O437  1  0.13190000  0.97880000  0.60463000  1
  O  O438  1  0.24010000  0.00773000  0.92609000  1
  O  O439  1  0.36210000  0.05443000  0.90940000  1
  O  O440  1  0.95710000  0.98970000  0.55930000  1
  O  O441  1  0.85950000  0.03520000  0.51405000  1
  O  O442  1  0.07060000  0.46059000  0.89455000  1
  O  O443  1  0.13190000  0.52120000  0.89537000  1
  O  O444  1  0.24010000  0.49227000  0.57391000  1
  O  O445  1  0.36210000  0.44557000  0.59060000  1
  O  O446  1  0.95710000  0.51030000  0.94070000  1
  O  O447  1  0.85950000  0.46480000  0.98595000  1
  O  O448  1  0.92940000  0.39455000  0.96059000  1
  O  O449  1  0.86810000  0.39537000  0.02120000  1
  O  O450  1  0.75990000  0.07391000  0.99227000  1
  O  O451  1  0.63790000  0.09060000  0.94557000  1
  O  O452  1  0.04290000  0.44070000  0.01030000  1
  O  O453  1  0.14050000  0.48595000  0.96480000  1
  O  O454  1  0.92940000  0.10545000  0.53941000  1
  O  O455  1  0.86810000  0.10463000  0.47880000  1
  O  O456  1  0.75990000  0.42609000  0.50773000  1
  O  O457  1  0.63790000  0.40940000  0.55443000  1
  O  O458  1  0.04290000  0.05930000  0.48970000  1
  O  O459  1  0.14050000  0.01405000  0.53520000  1
  O  O460  1  0.42940000  0.96059000  0.10545000  1
  O  O461  1  0.36810000  0.02120000  0.10463000  1
  O  O462  1  0.25990000  0.99227000  0.42609000  1
  O  O463  1  0.13790000  0.94557000  0.40940000  1
  O  O464  1  0.54290000  0.01030000  0.05930000  1
  O  O465  1  0.64050000  0.96480000  0.01405000  1
  O  O466  1  0.42940000  0.53941000  0.39455000  1
  O  O467  1  0.36810000  0.47880000  0.39537000  1
  O  O468  1  0.25990000  0.50773000  0.07391000  1
  O  O469  1  0.13790000  0.55443000  0.09060000  1
  O  O470  1  0.54290000  0.48970000  0.44070000  1
  O  O471  1  0.64050000  0.53520000  0.48595000  1
  F  F472  1  0.55250000  0.16700000  0.48150000  1
  F  F473  1  0.46530000  0.21000000  0.45280000  1
  F  F474  1  0.55030000  0.22270000  0.50340000  1
  F  F475  1  0.31950000  0.25160000  0.60960000  1
  F  F476  1  0.46070000  0.22990000  0.58490000  1
  F  F477  1  0.46470000  0.28230000  0.61180000  1
  F  F478  1  0.55250000  0.33300000  0.01850000  1
  F  F479  1  0.46530000  0.29000000  0.04720000  1
  F  F480  1  0.55030000  0.27730000  0.99660000  1
  F  F481  1  0.31950000  0.24840000  0.89040000  1
  F  F482  1  0.46070000  0.27010000  0.91510000  1
  F  F483  1  0.46470000  0.21770000  0.88820000  1
  F  F484  1  0.05250000  0.01850000  0.16700000  1
  F  F485  1  0.96530000  0.04720000  0.21000000  1
  F  F486  1  0.05030000  0.99660000  0.22270000  1
  F  F487  1  0.81950000  0.89040000  0.25160000  1
  F  F488  1  0.96070000  0.91510000  0.22990000  1
  F  F489  1  0.96470000  0.88820000  0.28230000  1
  F  F490  1  0.05250000  0.48150000  0.33300000  1
  F  F491  1  0.96530000  0.45280000  0.29000000  1
  F  F492  1  0.05030000  0.50340000  0.27730000  1
  F  F493  1  0.81950000  0.60960000  0.24840000  1
  F  F494  1  0.96070000  0.58490000  0.27010000  1
  F  F495  1  0.96470000  0.61180000  0.21770000  1
  F  F496  1  0.94750000  0.83300000  0.98150000  1
  F  F497  1  0.03470000  0.79000000  0.95280000  1
  F  F498  1  0.94970000  0.77730000  0.00340000  1
  F  F499  1  0.18050000  0.74840000  0.10960000  1
  F  F500  1  0.03930000  0.77010000  0.08490000  1
  F  F501  1  0.03530000  0.71770000  0.11180000  1
  F  F502  1  0.94750000  0.66700000  0.51850000  1
  F  F503  1  0.03470000  0.71000000  0.54720000  1
  F  F504  1  0.94970000  0.72270000  0.49660000  1
  F  F505  1  0.18050000  0.75160000  0.39040000  1
  F  F506  1  0.03930000  0.72990000  0.41510000  1
  F  F507  1  0.03530000  0.78230000  0.38820000  1
  F  F508  1  0.44750000  0.98150000  0.66700000  1
  F  F509  1  0.53470000  0.95280000  0.71000000  1
  F  F510  1  0.44970000  0.00340000  0.72270000  1
  F  F511  1  0.68050000  0.10960000  0.75160000  1
  F  F512  1  0.53930000  0.08490000  0.72990000  1
  F  F513  1  0.53530000  0.11180000  0.78230000  1
  F  F514  1  0.44750000  0.51850000  0.83300000  1
  F  F515  1  0.53470000  0.54720000  0.79000000  1
  F  F516  1  0.44970000  0.49660000  0.77730000  1
  F  F517  1  0.68050000  0.39040000  0.74840000  1
  F  F518  1  0.53930000  0.41510000  0.77010000  1
  F  F519  1  0.53530000  0.38820000  0.71770000  1
  F  F520  1  0.44750000  0.83300000  0.51850000  1
  F  F521  1  0.53470000  0.79000000  0.54720000  1
  F  F522  1  0.44970000  0.77730000  0.49660000  1
  F  F523  1  0.68050000  0.74840000  0.39040000  1
  F  F524  1  0.53930000  0.77010000  0.41510000  1
  F  F525  1  0.53530000  0.71770000  0.38820000  1
  F  F526  1  0.44750000  0.66700000  0.98150000  1
  F  F527  1  0.53470000  0.71000000  0.95280000  1
  F  F528  1  0.44970000  0.72270000  0.00340000  1
  F  F529  1  0.68050000  0.75160000  0.10960000  1
  F  F530  1  0.53930000  0.72990000  0.08490000  1
  F  F531  1  0.53530000  0.78230000  0.11180000  1
  F  F532  1  0.94750000  0.98150000  0.83300000  1
  F  F533  1  0.03470000  0.95280000  0.79000000  1
  F  F534  1  0.94970000  0.00340000  0.77730000  1
  F  F535  1  0.18050000  0.10960000  0.74840000  1
  F  F536  1  0.03930000  0.08490000  0.77010000  1
  F  F537  1  0.03530000  0.11180000  0.71770000  1
  F  F538  1  0.94750000  0.51850000  0.66700000  1
  F  F539  1  0.03470000  0.54720000  0.71000000  1
  F  F540  1  0.94970000  0.49660000  0.72270000  1
  F  F541  1  0.18050000  0.39040000  0.75160000  1
  F  F542  1  0.03930000  0.41510000  0.72990000  1
  F  F543  1  0.03530000  0.38820000  0.78230000  1
  F  F544  1  0.05250000  0.16700000  0.01850000  1
  F  F545  1  0.96530000  0.21000000  0.04720000  1
  F  F546  1  0.05030000  0.22270000  0.99660000  1
  F  F547  1  0.81950000  0.25160000  0.89040000  1
  F  F548  1  0.96070000  0.22990000  0.91510000  1
  F  F549  1  0.96470000  0.28230000  0.88820000  1
  F  F550  1  0.05250000  0.33300000  0.48150000  1
  F  F551  1  0.96530000  0.29000000  0.45280000  1
  F  F552  1  0.05030000  0.27730000  0.50340000  1
  F  F553  1  0.81950000  0.24840000  0.60960000  1
  F  F554  1  0.96070000  0.27010000  0.58490000  1
  F  F555  1  0.96470000  0.21770000  0.61180000  1
  F  F556  1  0.55250000  0.01850000  0.33300000  1
  F  F557  1  0.46530000  0.04720000  0.29000000  1
  F  F558  1  0.55030000  0.99660000  0.27730000  1
  F  F559  1  0.31950000  0.89040000  0.24840000  1
  F  F560  1  0.46070000  0.91510000  0.27010000  1
  F  F561  1  0.46470000  0.88820000  0.21770000  1
  F  F562  1  0.55250000  0.48150000  0.16700000  1
  F  F563  1  0.46530000  0.45280000  0.21000000  1
  F  F564  1  0.55030000  0.50340000  0.22270000  1
  F  F565  1  0.31950000  0.60960000  0.25160000  1
  F  F566  1  0.46070000  0.58490000  0.22990000  1
  F  F567  1  0.46470000  0.61180000  0.28230000  1
