# generated using pymatgen
data_Zr3H24(C8O5)4
_symmetry_space_group_name_H-M   'P 1'
_cell_length_a   14.61500000
_cell_length_b   24.26300000
_cell_length_c   24.26300000
_cell_angle_alpha   90.00000000
_cell_angle_beta   90.00000000
_cell_angle_gamma   90.00000000
_symmetry_Int_Tables_number   1
_chemical_formula_structural   Zr3H24(C8O5)4
_chemical_formula_sum   'Zr12 H96 C128 O80'
_cell_volume   8603.75066493
_cell_formula_units_Z   4
loop_
 _symmetry_equiv_pos_site_id
 _symmetry_equiv_pos_as_xyz
  1  'x, y, z'
loop_
 _atom_site_type_symbol
 _atom_site_label
 _atom_site_symmetry_multiplicity
 _atom_site_fract_x
 _atom_site_fract_y
 _atom_site_fract_z
 _atom_site_occupancy
  Zr  Zr0  1  0.00000000  0.10038000  0.50000000  1
  Zr  Zr1  1  0.00000000  0.89962000  0.50000000  1
  Zr  Zr2  1  0.50000000  0.50000000  0.10038000  1
  Zr  Zr3  1  0.50000000  0.50000000  0.89962000  1
  Zr  Zr4  1  0.11979000  1.00000000  0.42775000  1
  Zr  Zr5  1  0.11979000  0.00000000  0.57225000  1
  Zr  Zr6  1  0.61979000  0.57225000  0.00000000  1
  Zr  Zr7  1  0.61979000  0.42775000  0.00000000  1
  Zr  Zr8  1  0.88021000  1.00000000  0.42775000  1
  Zr  Zr9  1  0.88021000  0.00000000  0.57225000  1
  Zr  Zr10  1  0.38021000  0.42775000  0.00000000  1
  Zr  Zr11  1  0.38021000  0.57225000  0.00000000  1
  H  H12  1  0.09410000  0.23660000  0.39800000  1
  H  H13  1  0.26090000  0.12340000  0.32730000  1
  H  H14  1  0.31410000  0.19030000  0.26570000  1
  H  H15  1  0.07720000  0.38050000  0.38720000  1
  H  H16  1  0.14250000  0.33820000  0.41910000  1
  H  H17  1  0.04300000  0.31900000  0.39930000  1
  H  H18  1  0.16260000  0.69420000  0.65630000  1
  H  H19  1  0.37890000  0.88010000  0.80030000  1
  H  H20  1  0.28060000  0.89530000  0.77550000  1
  H  H21  1  0.36780000  0.89220000  0.73580000  1
  H  H22  1  0.09410000  0.76340000  0.60200000  1
  H  H23  1  0.26090000  0.87660000  0.67270000  1
  H  H24  1  0.59410000  0.60200000  0.23660000  1
  H  H25  1  0.76090000  0.67270000  0.12340000  1
  H  H26  1  0.81410000  0.73430000  0.19030000  1
  H  H27  1  0.57720000  0.61280000  0.38050000  1
  H  H28  1  0.64250000  0.58090000  0.33820000  1
  H  H29  1  0.54300000  0.60070000  0.31900000  1
  H  H30  1  0.60940000  0.40530000  0.76110000  1
  H  H31  1  0.74560000  0.32000000  0.87900000  1
  H  H32  1  0.81410000  0.26570000  0.80970000  1
  H  H33  1  0.57720000  0.38720000  0.61950000  1
  H  H34  1  0.64250000  0.41910000  0.66180000  1
  H  H35  1  0.54300000  0.39930000  0.68100000  1
  H  H36  1  0.83740000  0.69420000  0.34370000  1
  H  H37  1  0.62110000  0.88010000  0.19970000  1
  H  H38  1  0.71940000  0.89530000  0.22450000  1
  H  H39  1  0.63220000  0.89220000  0.26420000  1
  H  H40  1  0.90590000  0.76340000  0.39800000  1
  H  H41  1  0.73910000  0.87660000  0.32730000  1
  H  H42  1  0.83740000  0.30580000  0.65630000  1
  H  H43  1  0.62110000  0.11990000  0.80030000  1
  H  H44  1  0.71940000  0.10470000  0.77550000  1
  H  H45  1  0.63220000  0.10780000  0.73580000  1
  H  H46  1  0.90590000  0.23660000  0.60200000  1
  H  H47  1  0.73910000  0.12340000  0.67270000  1
  H  H48  1  0.39060000  0.40530000  0.23890000  1
  H  H49  1  0.33740000  0.34370000  0.30580000  1
  H  H50  1  0.25440000  0.32000000  0.12100000  1
  H  H51  1  0.12110000  0.19970000  0.11990000  1
  H  H52  1  0.21940000  0.22450000  0.10470000  1
  H  H53  1  0.13220000  0.26420000  0.10780000  1
  H  H54  1  0.40590000  0.60200000  0.76340000  1
  H  H55  1  0.23910000  0.67270000  0.87660000  1
  H  H56  1  0.18590000  0.73430000  0.80970000  1
  H  H57  1  0.42280000  0.61280000  0.61950000  1
  H  H58  1  0.35750000  0.58090000  0.66180000  1
  H  H59  1  0.45700000  0.60070000  0.68100000  1
  H  H60  1  0.90590000  0.76340000  0.60200000  1
  H  H61  1  0.73910000  0.87660000  0.67270000  1
  H  H62  1  0.68590000  0.80970000  0.73430000  1
  H  H63  1  0.92280000  0.61950000  0.61280000  1
  H  H64  1  0.85750000  0.66180000  0.58090000  1
  H  H65  1  0.95700000  0.68100000  0.60070000  1
  H  H66  1  0.83740000  0.30580000  0.34370000  1
  H  H67  1  0.62110000  0.11990000  0.19970000  1
  H  H68  1  0.71940000  0.10470000  0.22450000  1
  H  H69  1  0.63220000  0.10780000  0.26420000  1
  H  H70  1  0.90590000  0.23660000  0.39800000  1
  H  H71  1  0.73910000  0.12340000  0.32730000  1
  H  H72  1  0.39060000  0.40530000  0.76110000  1
  H  H73  1  0.33740000  0.34370000  0.69420000  1
  H  H74  1  0.25440000  0.32000000  0.87900000  1
  H  H75  1  0.12110000  0.19970000  0.88010000  1
  H  H76  1  0.21940000  0.22450000  0.89530000  1
  H  H77  1  0.13220000  0.26420000  0.89220000  1
  H  H78  1  0.39060000  0.59470000  0.23890000  1
  H  H79  1  0.33740000  0.65630000  0.30580000  1
  H  H80  1  0.25440000  0.68000000  0.12100000  1
  H  H81  1  0.12110000  0.80030000  0.11990000  1
  H  H82  1  0.21940000  0.77550000  0.10470000  1
  H  H83  1  0.13220000  0.73580000  0.10780000  1
  H  H84  1  0.09410000  0.23660000  0.60200000  1
  H  H85  1  0.26090000  0.12340000  0.67270000  1
  H  H86  1  0.31410000  0.19030000  0.73430000  1
  H  H87  1  0.07720000  0.38050000  0.61280000  1
  H  H88  1  0.14250000  0.33820000  0.58090000  1
  H  H89  1  0.04300000  0.31900000  0.60070000  1
  H  H90  1  0.09410000  0.76340000  0.39800000  1
  H  H91  1  0.26090000  0.87660000  0.32730000  1
  H  H92  1  0.31410000  0.80970000  0.26570000  1
  H  H93  1  0.07720000  0.61950000  0.38720000  1
  H  H94  1  0.14250000  0.66180000  0.41910000  1
  H  H95  1  0.04300000  0.68100000  0.39930000  1
  H  H96  1  0.60940000  0.59470000  0.76110000  1
  H  H97  1  0.66260000  0.65630000  0.69420000  1
  H  H98  1  0.74560000  0.68000000  0.87900000  1
  H  H99  1  0.87890000  0.80030000  0.88010000  1
  H  H100  1  0.78060000  0.77550000  0.89530000  1
  H  H101  1  0.86780000  0.73580000  0.89220000  1
  H  H102  1  0.59410000  0.39800000  0.23660000  1
  H  H103  1  0.76090000  0.32730000  0.12340000  1
  H  H104  1  0.81410000  0.26570000  0.19030000  1
  H  H105  1  0.57720000  0.38720000  0.38050000  1
  H  H106  1  0.64250000  0.41910000  0.33820000  1
  H  H107  1  0.54300000  0.39930000  0.31900000  1
  C  C108  1  0.13840000  0.13080000  0.40800000  1
  C  C109  1  0.17250000  0.17370000  0.36846000  1
  C  C110  1  0.23570000  0.25319000  0.29520000  1
  C  C111  1  0.13880000  0.22720000  0.37120000  1
  C  C112  1  0.17030000  0.26690000  0.33460000  1
  C  C113  1  0.23780000  0.15990000  0.32920000  1
  C  C114  1  0.26940000  0.19970000  0.29250000  1
  C  C115  1  0.09600000  0.34190000  0.39010000  1
  C  C116  1  0.13840000  0.86920000  0.59200000  1
  C  C117  1  0.17250000  0.82630000  0.63154000  1
  C  C118  1  0.23570000  0.74681000  0.70480000  1
  C  C119  1  0.33800000  0.87610000  0.76830000  1
  C  C120  1  0.13880000  0.77280000  0.62880000  1
  C  C121  1  0.17030000  0.73310000  0.66540000  1
  C  C122  1  0.23780000  0.84010000  0.67080000  1
  C  C123  1  0.26940000  0.80030000  0.70750000  1
  C  C124  1  0.63840000  0.59200000  0.13080000  1
  C  C125  1  0.67250000  0.63154000  0.17370000  1
  C  C126  1  0.73570000  0.70480000  0.25319000  1
  C  C127  1  0.63880000  0.62880000  0.22720000  1
  C  C128  1  0.67030000  0.66540000  0.26690000  1
  C  C129  1  0.73780000  0.67080000  0.15990000  1
  C  C130  1  0.76940000  0.70750000  0.19970000  1
  C  C131  1  0.59600000  0.60990000  0.34190000  1
  C  C132  1  0.63840000  0.40800000  0.86920000  1
  C  C133  1  0.67250000  0.36846000  0.82630000  1
  C  C134  1  0.73570000  0.29520000  0.74681000  1
  C  C135  1  0.64780000  0.37550000  0.77140000  1
  C  C136  1  0.67950000  0.33890000  0.73167000  1
  C  C137  1  0.72870000  0.32480000  0.84145000  1
  C  C138  1  0.76940000  0.29250000  0.80030000  1
  C  C139  1  0.59600000  0.39010000  0.65810000  1
  C  C140  1  0.86160000  0.86920000  0.40800000  1
  C  C141  1  0.82750000  0.82630000  0.36846000  1
  C  C142  1  0.76430000  0.74681000  0.29520000  1
  C  C143  1  0.66200000  0.87610000  0.23170000  1
  C  C144  1  0.86120000  0.77280000  0.37120000  1
  C  C145  1  0.82970000  0.73310000  0.33460000  1
  C  C146  1  0.76220000  0.84010000  0.32920000  1
  C  C147  1  0.73060000  0.80030000  0.29250000  1
  C  C148  1  0.86160000  0.13080000  0.59200000  1
  C  C149  1  0.82750000  0.17370000  0.63154000  1
  C  C150  1  0.76430000  0.25319000  0.70480000  1
  C  C151  1  0.66200000  0.12390000  0.76830000  1
  C  C152  1  0.86120000  0.22720000  0.62880000  1
  C  C153  1  0.82970000  0.26690000  0.66540000  1
  C  C154  1  0.76220000  0.15990000  0.67080000  1
  C  C155  1  0.73060000  0.19970000  0.70750000  1
  C  C156  1  0.36160000  0.40800000  0.13080000  1
  C  C157  1  0.32750000  0.36846000  0.17370000  1
  C  C158  1  0.26430000  0.29520000  0.25319000  1
  C  C159  1  0.35220000  0.37550000  0.22860000  1
  C  C160  1  0.32050000  0.33890000  0.26833000  1
  C  C161  1  0.27130000  0.32480000  0.15855000  1
  C  C162  1  0.23970000  0.28820000  0.19830000  1
  C  C163  1  0.16200000  0.23170000  0.12390000  1
  C  C164  1  0.36160000  0.59200000  0.86920000  1
  C  C165  1  0.32750000  0.63154000  0.82630000  1
  C  C166  1  0.26430000  0.70480000  0.74681000  1
  C  C167  1  0.36120000  0.62880000  0.77280000  1
  C  C168  1  0.32970000  0.66540000  0.73310000  1
  C  C169  1  0.26220000  0.67080000  0.84010000  1
  C  C170  1  0.23060000  0.70750000  0.80030000  1
  C  C171  1  0.40400000  0.60990000  0.65810000  1
  C  C172  1  0.86160000  0.86920000  0.59200000  1
  C  C173  1  0.82750000  0.82630000  0.63154000  1
  C  C174  1  0.76430000  0.74681000  0.70480000  1
  C  C175  1  0.86120000  0.77280000  0.62880000  1
  C  C176  1  0.82970000  0.73310000  0.66540000  1
  C  C177  1  0.76220000  0.84010000  0.67080000  1
  C  C178  1  0.73060000  0.80030000  0.70750000  1
  C  C179  1  0.90400000  0.65810000  0.60990000  1
  C  C180  1  0.86160000  0.13080000  0.40800000  1
  C  C181  1  0.82750000  0.17370000  0.36846000  1
  C  C182  1  0.76430000  0.25319000  0.29520000  1
  C  C183  1  0.66200000  0.12390000  0.23170000  1
  C  C184  1  0.86120000  0.22720000  0.37120000  1
  C  C185  1  0.82970000  0.26690000  0.33460000  1
  C  C186  1  0.76220000  0.15990000  0.32920000  1
  C  C187  1  0.73060000  0.19970000  0.29250000  1
  C  C188  1  0.36160000  0.40800000  0.86920000  1
  C  C189  1  0.32750000  0.36846000  0.82630000  1
  C  C190  1  0.26430000  0.29520000  0.74681000  1
  C  C191  1  0.35220000  0.37550000  0.77140000  1
  C  C192  1  0.32050000  0.33890000  0.73167000  1
  C  C193  1  0.27130000  0.32480000  0.84145000  1
  C  C194  1  0.23970000  0.28820000  0.80170000  1
  C  C195  1  0.16200000  0.23170000  0.87610000  1
  C  C196  1  0.36160000  0.59200000  0.13080000  1
  C  C197  1  0.32750000  0.63154000  0.17370000  1
  C  C198  1  0.26430000  0.70480000  0.25319000  1
  C  C199  1  0.35220000  0.62450000  0.22860000  1
  C  C200  1  0.32050000  0.66110000  0.26833000  1
  C  C201  1  0.27130000  0.67520000  0.15855000  1
  C  C202  1  0.23970000  0.71180000  0.19830000  1
  C  C203  1  0.16200000  0.76830000  0.12390000  1
  C  C204  1  0.13840000  0.13080000  0.59200000  1
  C  C205  1  0.17250000  0.17370000  0.63154000  1
  C  C206  1  0.23570000  0.25319000  0.70480000  1
  C  C207  1  0.13880000  0.22720000  0.62880000  1
  C  C208  1  0.17030000  0.26690000  0.66540000  1
  C  C209  1  0.23780000  0.15990000  0.67080000  1
  C  C210  1  0.26940000  0.19970000  0.70750000  1
  C  C211  1  0.09600000  0.34190000  0.60990000  1
  C  C212  1  0.13840000  0.86920000  0.40800000  1
  C  C213  1  0.17250000  0.82630000  0.36846000  1
  C  C214  1  0.23570000  0.74681000  0.29520000  1
  C  C215  1  0.13880000  0.77280000  0.37120000  1
  C  C216  1  0.17030000  0.73310000  0.33460000  1
  C  C217  1  0.23780000  0.84010000  0.32920000  1
  C  C218  1  0.26940000  0.80030000  0.29250000  1
  C  C219  1  0.09600000  0.65810000  0.39010000  1
  C  C220  1  0.63840000  0.59200000  0.86920000  1
  C  C221  1  0.67250000  0.63154000  0.82630000  1
  C  C222  1  0.73570000  0.70480000  0.74681000  1
  C  C223  1  0.64780000  0.62450000  0.77140000  1
  C  C224  1  0.67950000  0.66110000  0.73167000  1
  C  C225  1  0.72870000  0.67520000  0.84145000  1
  C  C226  1  0.76030000  0.71180000  0.80170000  1
  C  C227  1  0.83800000  0.76830000  0.87610000  1
  C  C228  1  0.63840000  0.40800000  0.13080000  1
  C  C229  1  0.67250000  0.36846000  0.17370000  1
  C  C230  1  0.73570000  0.29520000  0.25319000  1
  C  C231  1  0.63880000  0.37120000  0.22720000  1
  C  C232  1  0.67030000  0.33460000  0.26690000  1
  C  C233  1  0.73780000  0.32920000  0.15990000  1
  C  C234  1  0.76940000  0.29250000  0.19970000  1
  C  C235  1  0.59600000  0.39010000  0.34190000  1
  O  O236  1  0.16310000  0.08170000  0.39750000  1
  O  O237  1  0.08930000  0.14770000  0.44700000  1
  O  O238  1  0.13470000  0.32370000  0.33730000  1
  O  O239  1  0.16310000  0.91830000  0.60250000  1
  O  O240  1  0.08930000  0.85230000  0.55300000  1
  O  O241  1  0.32040000  0.81760000  0.75850000  1
  O  O242  1  0.66310000  0.60250000  0.08170000  1
  O  O243  1  0.58930000  0.55300000  0.14770000  1
  O  O244  1  0.63470000  0.66270000  0.32370000  1
  O  O245  1  0.66310000  0.39750000  0.91830000  1
  O  O246  1  0.58930000  0.44700000  0.85230000  1
  O  O247  1  0.63470000  0.33730000  0.67630000  1
  O  O248  1  0.83690000  0.91830000  0.39750000  1
  O  O249  1  0.91070000  0.85230000  0.44700000  1
  O  O250  1  0.67960000  0.81760000  0.24150000  1
  O  O251  1  0.83690000  0.08170000  0.60250000  1
  O  O252  1  0.91070000  0.14770000  0.55300000  1
  O  O253  1  0.67960000  0.18240000  0.75850000  1
  O  O254  1  0.33690000  0.39750000  0.08170000  1
  O  O255  1  0.41070000  0.44700000  0.14770000  1
  O  O256  1  0.17960000  0.24150000  0.18240000  1
  O  O257  1  0.33690000  0.60250000  0.91830000  1
  O  O258  1  0.41070000  0.55300000  0.85230000  1
  O  O259  1  0.36530000  0.66270000  0.67630000  1
  O  O260  1  0.83690000  0.91830000  0.60250000  1
  O  O261  1  0.91070000  0.85230000  0.55300000  1
  O  O262  1  0.86530000  0.67630000  0.66270000  1
  O  O263  1  0.83690000  0.08170000  0.39750000  1
  O  O264  1  0.91070000  0.14770000  0.44700000  1
  O  O265  1  0.67960000  0.18240000  0.24150000  1
  O  O266  1  0.33690000  0.39750000  0.91830000  1
  O  O267  1  0.41070000  0.44700000  0.85230000  1
  O  O268  1  0.17960000  0.24150000  0.81760000  1
  O  O269  1  0.33690000  0.60250000  0.08170000  1
  O  O270  1  0.41070000  0.55300000  0.14770000  1
  O  O271  1  0.17960000  0.75850000  0.18240000  1
  O  O272  1  0.16310000  0.08170000  0.60250000  1
  O  O273  1  0.08930000  0.14770000  0.55300000  1
  O  O274  1  0.13470000  0.32370000  0.66270000  1
  O  O275  1  0.16310000  0.91830000  0.39750000  1
  O  O276  1  0.08930000  0.85230000  0.44700000  1
  O  O277  1  0.13470000  0.67630000  0.33730000  1
  O  O278  1  0.66310000  0.60250000  0.91830000  1
  O  O279  1  0.58930000  0.55300000  0.85230000  1
  O  O280  1  0.82040000  0.75850000  0.81760000  1
  O  O281  1  0.66310000  0.39750000  0.08170000  1
  O  O282  1  0.58930000  0.44700000  0.14770000  1
  O  O283  1  0.63470000  0.33730000  0.32370000  1
  O  O284  1  0.11480000  0.00000000  0.33860000  1
  O  O285  1  0.26910000  0.00000000  0.43070000  1
  O  O286  1  0.11480000  0.00000000  0.66140000  1
  O  O287  1  0.26910000  0.00000000  0.56930000  1
  O  O288  1  0.61480000  0.66140000  0.00000000  1
  O  O289  1  0.76910000  0.56930000  0.00000000  1
  O  O290  1  0.61480000  0.33860000  0.00000000  1
  O  O291  1  0.76910000  0.43070000  0.00000000  1
  O  O292  1  0.88520000  0.00000000  0.33860000  1
  O  O293  1  0.73090000  0.00000000  0.43070000  1
  O  O294  1  0.88520000  0.00000000  0.66140000  1
  O  O295  1  0.73090000  0.00000000  0.56930000  1
  O  O296  1  0.38520000  0.33860000  0.00000000  1
  O  O297  1  0.23090000  0.43070000  0.00000000  1
  O  O298  1  0.38520000  0.66140000  0.00000000  1
  O  O299  1  0.23090000  0.56930000  0.00000000  1
  O  O300  1  0.00000000  0.05020000  0.42570000  1
  O  O301  1  0.00000000  0.94980000  0.57430000  1
  O  O302  1  0.50000000  0.57430000  0.05020000  1
  O  O303  1  0.50000000  0.42570000  0.94980000  1
  O  O304  1  0.00000000  0.94980000  0.42570000  1
  O  O305  1  0.00000000  0.05020000  0.57430000  1
  O  O306  1  0.50000000  0.42570000  0.05020000  1
  O  O307  1  0.50000000  0.57430000  0.94980000  1
  O  O308  1  0.12730000  0.05000000  0.50000000  1
  O  O309  1  0.12730000  0.95000000  0.50000000  1
  O  O310  1  0.62730000  0.50000000  0.05000000  1
  O  O311  1  0.62730000  0.50000000  0.95000000  1
  O  O312  1  0.87270000  0.95000000  0.50000000  1
  O  O313  1  0.87270000  0.05000000  0.50000000  1
  O  O314  1  0.37270000  0.50000000  0.05000000  1
  O  O315  1  0.37270000  0.50000000  0.95000000  1
