# generated using pymatgen
data_Zr3H12C28(NO6)4
_symmetry_space_group_name_H-M   'P 1'
_cell_length_a   15.23200000
_cell_length_b   24.25000000
_cell_length_c   24.25000000
_cell_angle_alpha   90.00000000
_cell_angle_beta   90.00000000
_cell_angle_gamma   90.00000000
_symmetry_Int_Tables_number   1
_chemical_formula_structural   Zr3H12C28(NO6)4
_chemical_formula_sum   'Zr12 H48 C112 N16 O96'
_cell_volume   8957.36800000
_cell_formula_units_Z   4
loop_
 _symmetry_equiv_pos_site_id
 _symmetry_equiv_pos_as_xyz
  1  'x, y, z'
loop_
 _atom_site_type_symbol
 _atom_site_label
 _atom_site_symmetry_multiplicity
 _atom_site_fract_x
 _atom_site_fract_y
 _atom_site_fract_z
 _atom_site_occupancy
  Zr  Zr0  1  0.00000000  0.50000000  0.10037000  1
  Zr  Zr1  1  0.11592000  0.42701000  0.00000000  1
  Zr  Zr2  1  0.50000000  0.89963000  0.50000000  1
  Zr  Zr3  1  0.61592000  1.00000000  0.42701000  1
  Zr  Zr4  1  0.00000000  0.50000000  0.89963000  1
  Zr  Zr5  1  0.11592000  0.57299000  0.00000000  1
  Zr  Zr6  1  0.50000000  0.10037000  0.50000000  1
  Zr  Zr7  1  0.61592000  0.00000000  0.57299000  1
  Zr  Zr8  1  0.88408000  0.42701000  0.00000000  1
  Zr  Zr9  1  0.38408000  1.00000000  0.42701000  1
  Zr  Zr10  1  0.88408000  0.57299000  0.00000000  1
  Zr  Zr11  1  0.38408000  0.00000000  0.57299000  1
  H  H12  1  0.12060000  0.41530000  0.23960000  1
  H  H13  1  0.23630000  0.31600000  0.12640000  1
  H  H14  1  0.28390000  0.25740000  0.19700000  1
  H  H15  1  0.62060000  0.76040000  0.41530000  1
  H  H16  1  0.73630000  0.87360000  0.31600000  1
  H  H17  1  0.78390000  0.80300000  0.25740000  1
  H  H18  1  0.12060000  0.58470000  0.76040000  1
  H  H19  1  0.23630000  0.68400000  0.87360000  1
  H  H20  1  0.28390000  0.74260000  0.80300000  1
  H  H21  1  0.62060000  0.23960000  0.58470000  1
  H  H22  1  0.73630000  0.12640000  0.68400000  1
  H  H23  1  0.78390000  0.19700000  0.74260000  1
  H  H24  1  0.87940000  0.41530000  0.76040000  1
  H  H25  1  0.76370000  0.31600000  0.87360000  1
  H  H26  1  0.71610000  0.25740000  0.80300000  1
  H  H27  1  0.37940000  0.23960000  0.41530000  1
  H  H28  1  0.26370000  0.12640000  0.31600000  1
  H  H29  1  0.21610000  0.19700000  0.25740000  1
  H  H30  1  0.87940000  0.58470000  0.23960000  1
  H  H31  1  0.76370000  0.68400000  0.12640000  1
  H  H32  1  0.71610000  0.74260000  0.19700000  1
  H  H33  1  0.37940000  0.76040000  0.58470000  1
  H  H34  1  0.26370000  0.87360000  0.68400000  1
  H  H35  1  0.21610000  0.80300000  0.74260000  1
  H  H36  1  0.87940000  0.58470000  0.76040000  1
  H  H37  1  0.76370000  0.68400000  0.87360000  1
  H  H38  1  0.71610000  0.74260000  0.80300000  1
  H  H39  1  0.37940000  0.23960000  0.58470000  1
  H  H40  1  0.26370000  0.12640000  0.68400000  1
  H  H41  1  0.21610000  0.19700000  0.74260000  1
  H  H42  1  0.87940000  0.41530000  0.23960000  1
  H  H43  1  0.76370000  0.31600000  0.12640000  1
  H  H44  1  0.71610000  0.25740000  0.19700000  1
  H  H45  1  0.37940000  0.76040000  0.41530000  1
  H  H46  1  0.26370000  0.87360000  0.31600000  1
  H  H47  1  0.21610000  0.80300000  0.25740000  1
  H  H48  1  0.12060000  0.58470000  0.23960000  1
  H  H49  1  0.23630000  0.68400000  0.12640000  1
  H  H50  1  0.28390000  0.74260000  0.19700000  1
  H  H51  1  0.62060000  0.76040000  0.58470000  1
  H  H52  1  0.73630000  0.87360000  0.68400000  1
  H  H53  1  0.78390000  0.80300000  0.74260000  1
  H  H54  1  0.12060000  0.41530000  0.76040000  1
  H  H55  1  0.23630000  0.31600000  0.87360000  1
  H  H56  1  0.28390000  0.25740000  0.80300000  1
  H  H57  1  0.62060000  0.23960000  0.41530000  1
  H  H58  1  0.73630000  0.12640000  0.31600000  1
  H  H59  1  0.78390000  0.19700000  0.25740000  1
  C  C60  1  0.13810000  0.40774000  0.13222000  1
  C  C61  1  0.17400000  0.37113000  0.17636000  1
  C  C62  1  0.23060000  0.30153000  0.26027000  1
  C  C63  1  0.15380000  0.38320000  0.23095000  1
  C  C64  1  0.22250000  0.32420000  0.16373000  1
  C  C65  1  0.18210000  0.34840000  0.27290000  1
  C  C66  1  0.25080000  0.28940000  0.20568000  1
  C  C67  1  0.63810000  0.86778000  0.40774000  1
  C  C68  1  0.67400000  0.82364000  0.37113000  1
  C  C69  1  0.73060000  0.73973000  0.30153000  1
  C  C70  1  0.65380000  0.76905000  0.38320000  1
  C  C71  1  0.72250000  0.83627000  0.32420000  1
  C  C72  1  0.68210000  0.72710000  0.34840000  1
  C  C73  1  0.75080000  0.79432000  0.28940000  1
  C  C74  1  0.13810000  0.59226000  0.86778000  1
  C  C75  1  0.17400000  0.62887000  0.82364000  1
  C  C76  1  0.23060000  0.69847000  0.73973000  1
  C  C77  1  0.15380000  0.61680000  0.76905000  1
  C  C78  1  0.22250000  0.67580000  0.83627000  1
  C  C79  1  0.18210000  0.65160000  0.72710000  1
  C  C80  1  0.25080000  0.71060000  0.79432000  1
  C  C81  1  0.63810000  0.13222000  0.59226000  1
  C  C82  1  0.67400000  0.17636000  0.62887000  1
  C  C83  1  0.73060000  0.26027000  0.69847000  1
  C  C84  1  0.65380000  0.23095000  0.61680000  1
  C  C85  1  0.72250000  0.16373000  0.67580000  1
  C  C86  1  0.68210000  0.27290000  0.65160000  1
  C  C87  1  0.75080000  0.20568000  0.71060000  1
  C  C88  1  0.86190000  0.40774000  0.86778000  1
  C  C89  1  0.82600000  0.37113000  0.82364000  1
  C  C90  1  0.76940000  0.30153000  0.73973000  1
  C  C91  1  0.84620000  0.38320000  0.76905000  1
  C  C92  1  0.77750000  0.32420000  0.83627000  1
  C  C93  1  0.81790000  0.34840000  0.72710000  1
  C  C94  1  0.74920000  0.28940000  0.79432000  1
  C  C95  1  0.36190000  0.13222000  0.40774000  1
  C  C96  1  0.32600000  0.17636000  0.37113000  1
  C  C97  1  0.26940000  0.26027000  0.30153000  1
  C  C98  1  0.34620000  0.23095000  0.38320000  1
  C  C99  1  0.27750000  0.16373000  0.32420000  1
  C  C100  1  0.31790000  0.27290000  0.34840000  1
  C  C101  1  0.24920000  0.20568000  0.28940000  1
  C  C102  1  0.86190000  0.59226000  0.13222000  1
  C  C103  1  0.82600000  0.62887000  0.17636000  1
  C  C104  1  0.76940000  0.69847000  0.26027000  1
  C  C105  1  0.84620000  0.61680000  0.23095000  1
  C  C106  1  0.77750000  0.67580000  0.16373000  1
  C  C107  1  0.81790000  0.65160000  0.27290000  1
  C  C108  1  0.74920000  0.71060000  0.20568000  1
  C  C109  1  0.36190000  0.86778000  0.59226000  1
  C  C110  1  0.32600000  0.82364000  0.62887000  1
  C  C111  1  0.26940000  0.73973000  0.69847000  1
  C  C112  1  0.34620000  0.76905000  0.61680000  1
  C  C113  1  0.27750000  0.83627000  0.67580000  1
  C  C114  1  0.31790000  0.72710000  0.65160000  1
  C  C115  1  0.24920000  0.79432000  0.71060000  1
  C  C116  1  0.86190000  0.59226000  0.86778000  1
  C  C117  1  0.82600000  0.62887000  0.82364000  1
  C  C118  1  0.76940000  0.69847000  0.73973000  1
  C  C119  1  0.84620000  0.61680000  0.76905000  1
  C  C120  1  0.77750000  0.67580000  0.83627000  1
  C  C121  1  0.81790000  0.65160000  0.72710000  1
  C  C122  1  0.74920000  0.71060000  0.79432000  1
  C  C123  1  0.36190000  0.13222000  0.59226000  1
  C  C124  1  0.32600000  0.17636000  0.62887000  1
  C  C125  1  0.26940000  0.26027000  0.69847000  1
  C  C126  1  0.34620000  0.23095000  0.61680000  1
  C  C127  1  0.27750000  0.16373000  0.67580000  1
  C  C128  1  0.31790000  0.27290000  0.65160000  1
  C  C129  1  0.24920000  0.20568000  0.71060000  1
  C  C130  1  0.86190000  0.40774000  0.13222000  1
  C  C131  1  0.82600000  0.37113000  0.17636000  1
  C  C132  1  0.76940000  0.30153000  0.26027000  1
  C  C133  1  0.84620000  0.38320000  0.23095000  1
  C  C134  1  0.77750000  0.32420000  0.16373000  1
  C  C135  1  0.81790000  0.34840000  0.27290000  1
  C  C136  1  0.74920000  0.28940000  0.20568000  1
  C  C137  1  0.36190000  0.86778000  0.40774000  1
  C  C138  1  0.32600000  0.82364000  0.37113000  1
  C  C139  1  0.26940000  0.73973000  0.30153000  1
  C  C140  1  0.34620000  0.76905000  0.38320000  1
  C  C141  1  0.27750000  0.83627000  0.32420000  1
  C  C142  1  0.31790000  0.72710000  0.34840000  1
  C  C143  1  0.24920000  0.79432000  0.28940000  1
  C  C144  1  0.13810000  0.59226000  0.13222000  1
  C  C145  1  0.17400000  0.62887000  0.17636000  1
  C  C146  1  0.23060000  0.69847000  0.26027000  1
  C  C147  1  0.15380000  0.61680000  0.23095000  1
  C  C148  1  0.22250000  0.67580000  0.16373000  1
  C  C149  1  0.18210000  0.65160000  0.27290000  1
  C  C150  1  0.25080000  0.71060000  0.20568000  1
  C  C151  1  0.63810000  0.86778000  0.59226000  1
  C  C152  1  0.67400000  0.82364000  0.62887000  1
  C  C153  1  0.73060000  0.73973000  0.69847000  1
  C  C154  1  0.65380000  0.76905000  0.61680000  1
  C  C155  1  0.72250000  0.83627000  0.67580000  1
  C  C156  1  0.68210000  0.72710000  0.65160000  1
  C  C157  1  0.75080000  0.79432000  0.71060000  1
  C  C158  1  0.13810000  0.40774000  0.86778000  1
  C  C159  1  0.17400000  0.37113000  0.82364000  1
  C  C160  1  0.23060000  0.30153000  0.73973000  1
  C  C161  1  0.15380000  0.38320000  0.76905000  1
  C  C162  1  0.22250000  0.32420000  0.83627000  1
  C  C163  1  0.18210000  0.34840000  0.72710000  1
  C  C164  1  0.25080000  0.28940000  0.79432000  1
  C  C165  1  0.63810000  0.13222000  0.40774000  1
  C  C166  1  0.67400000  0.17636000  0.37113000  1
  C  C167  1  0.73060000  0.26027000  0.30153000  1
  C  C168  1  0.65380000  0.23095000  0.38320000  1
  C  C169  1  0.72250000  0.16373000  0.32420000  1
  C  C170  1  0.68210000  0.27290000  0.34840000  1
  C  C171  1  0.75080000  0.20568000  0.28940000  1
  N  N172  1  0.16250000  0.36520000  0.33010000  1
  N  N173  1  0.66250000  0.66990000  0.36520000  1
  N  N174  1  0.16250000  0.63480000  0.66990000  1
  N  N175  1  0.66250000  0.33010000  0.63480000  1
  N  N176  1  0.83750000  0.36520000  0.66990000  1
  N  N177  1  0.33750000  0.33010000  0.36520000  1
  N  N178  1  0.83750000  0.63480000  0.33010000  1
  N  N179  1  0.33750000  0.66990000  0.63480000  1
  N  N180  1  0.83750000  0.63480000  0.66990000  1
  N  N181  1  0.33750000  0.33010000  0.63480000  1
  N  N182  1  0.83750000  0.36520000  0.33010000  1
  N  N183  1  0.33750000  0.66990000  0.36520000  1
  N  N184  1  0.16250000  0.63480000  0.33010000  1
  N  N185  1  0.66250000  0.66990000  0.63480000  1
  N  N186  1  0.16250000  0.36520000  0.66990000  1
  N  N187  1  0.66250000  0.33010000  0.36520000  1
  O  O188  1  0.08590000  0.44557000  0.14750000  1
  O  O189  1  0.16110000  0.39751000  0.08398000  1
  O  O190  1  0.16160000  0.32970000  0.36580000  1
  O  O191  1  0.14780000  0.41430000  0.33950000  1
  O  O192  1  0.25930000  0.42960000  0.00000000  1
  O  O193  1  0.10930000  0.33606000  0.00000000  1
  O  O194  1  0.11700000  0.50000000  0.04916000  1
  O  O195  1  0.00000000  0.42630000  0.04899000  1
  O  O196  1  0.58590000  0.85250000  0.44557000  1
  O  O197  1  0.66110000  0.91602000  0.39751000  1
  O  O198  1  0.66160000  0.63420000  0.32970000  1
  O  O199  1  0.64780000  0.66050000  0.41430000  1
  O  O200  1  0.75930000  0.00000000  0.42960000  1
  O  O201  1  0.60930000  0.00000000  0.33606000  1
  O  O202  1  0.61700000  0.95084000  0.50000000  1
  O  O203  1  0.50000000  0.95101000  0.42630000  1
  O  O204  1  0.08590000  0.55443000  0.85250000  1
  O  O205  1  0.16110000  0.60249000  0.91602000  1
  O  O206  1  0.16160000  0.67030000  0.63420000  1
  O  O207  1  0.14780000  0.58570000  0.66050000  1
  O  O208  1  0.25930000  0.57040000  0.00000000  1
  O  O209  1  0.10930000  0.66394000  0.00000000  1
  O  O210  1  0.11700000  0.50000000  0.95084000  1
  O  O211  1  1.00000000  0.57370000  0.95101000  1
  O  O212  1  0.58590000  0.14750000  0.55443000  1
  O  O213  1  0.66110000  0.08398000  0.60249000  1
  O  O214  1  0.66160000  0.36580000  0.67030000  1
  O  O215  1  0.64780000  0.33950000  0.58570000  1
  O  O216  1  0.75930000  0.00000000  0.57040000  1
  O  O217  1  0.60930000  0.00000000  0.66394000  1
  O  O218  1  0.61700000  0.04916000  0.50000000  1
  O  O219  1  0.50000000  0.04899000  0.57370000  1
  O  O220  1  0.91410000  0.44557000  0.85250000  1
  O  O221  1  0.83890000  0.39751000  0.91602000  1
  O  O222  1  0.83840000  0.32970000  0.63420000  1
  O  O223  1  0.85220000  0.41430000  0.66050000  1
  O  O224  1  0.74070000  0.42960000  0.00000000  1
  O  O225  1  0.89070000  0.33606000  0.00000000  1
  O  O226  1  0.88300000  0.50000000  0.95084000  1
  O  O227  1  0.00000000  0.42630000  0.95101000  1
  O  O228  1  0.41410000  0.14750000  0.44557000  1
  O  O229  1  0.33890000  0.08398000  0.39751000  1
  O  O230  1  0.33840000  0.36580000  0.32970000  1
  O  O231  1  0.35220000  0.33950000  0.41430000  1
  O  O232  1  0.24070000  0.00000000  0.42960000  1
  O  O233  1  0.39070000  0.00000000  0.33606000  1
  O  O234  1  0.38300000  0.04916000  0.50000000  1
  O  O235  1  0.50000000  0.04899000  0.42630000  1
  O  O236  1  0.91410000  0.55443000  0.14750000  1
  O  O237  1  0.83890000  0.60249000  0.08398000  1
  O  O238  1  0.83840000  0.67030000  0.36580000  1
  O  O239  1  0.85220000  0.58570000  0.33950000  1
  O  O240  1  0.74070000  0.57040000  0.00000000  1
  O  O241  1  0.89070000  0.66394000  0.00000000  1
  O  O242  1  0.88300000  0.50000000  0.04916000  1
  O  O243  1  0.00000000  0.57370000  0.04899000  1
  O  O244  1  0.41410000  0.85250000  0.55443000  1
  O  O245  1  0.33890000  0.91602000  0.60249000  1
  O  O246  1  0.33840000  0.63420000  0.67030000  1
  O  O247  1  0.35220000  0.66050000  0.58570000  1
  O  O248  1  0.24070000  0.00000000  0.57040000  1
  O  O249  1  0.39070000  0.00000000  0.66394000  1
  O  O250  1  0.38300000  0.95084000  0.50000000  1
  O  O251  1  0.50000000  0.95101000  0.57370000  1
  O  O252  1  0.91410000  0.55443000  0.85250000  1
  O  O253  1  0.83890000  0.60249000  0.91602000  1
  O  O254  1  0.83840000  0.67030000  0.63420000  1
  O  O255  1  0.85220000  0.58570000  0.66050000  1
  O  O256  1  0.41410000  0.14750000  0.55443000  1
  O  O257  1  0.33890000  0.08398000  0.60249000  1
  O  O258  1  0.33840000  0.36580000  0.67030000  1
  O  O259  1  0.35220000  0.33950000  0.58570000  1
  O  O260  1  0.91410000  0.44557000  0.14750000  1
  O  O261  1  0.83890000  0.39751000  0.08398000  1
  O  O262  1  0.83840000  0.32970000  0.36580000  1
  O  O263  1  0.85220000  0.41430000  0.33950000  1
  O  O264  1  0.41410000  0.85250000  0.44557000  1
  O  O265  1  0.33890000  0.91602000  0.39751000  1
  O  O266  1  0.33840000  0.63420000  0.32970000  1
  O  O267  1  0.35220000  0.66050000  0.41430000  1
  O  O268  1  0.08590000  0.55443000  0.14750000  1
  O  O269  1  0.16110000  0.60249000  0.08398000  1
  O  O270  1  0.16160000  0.67030000  0.36580000  1
  O  O271  1  0.14780000  0.58570000  0.33950000  1
  O  O272  1  0.58590000  0.85250000  0.55443000  1
  O  O273  1  0.66110000  0.91602000  0.60249000  1
  O  O274  1  0.66160000  0.63420000  0.67030000  1
  O  O275  1  0.64780000  0.66050000  0.58570000  1
  O  O276  1  0.08590000  0.44557000  0.85250000  1
  O  O277  1  0.16110000  0.39751000  0.91602000  1
  O  O278  1  0.16160000  0.32970000  0.63420000  1
  O  O279  1  0.14780000  0.41430000  0.66050000  1
  O  O280  1  0.58590000  0.14750000  0.44557000  1
  O  O281  1  0.66110000  0.08398000  0.39751000  1
  O  O282  1  0.66160000  0.36580000  0.32970000  1
  O  O283  1  0.64780000  0.33950000  0.41430000  1
