# generated using pymatgen
data_Zr3H27(C19O7)2
_symmetry_space_group_name_H-M   'P 1'
_cell_length_a   16.81600000
_cell_length_b   23.67900000
_cell_length_c   23.67900000
_cell_angle_alpha   90.00000000
_cell_angle_beta   90.00000000
_cell_angle_gamma   90.00000000
_symmetry_Int_Tables_number   1
_chemical_formula_structural   Zr3H27(C19O7)2
_chemical_formula_sum   'Zr12 H108 C152 O56'
_cell_volume   9428.64780946
_cell_formula_units_Z   4
loop_
 _symmetry_equiv_pos_site_id
 _symmetry_equiv_pos_as_xyz
  1  'x, y, z'
loop_
 _atom_site_type_symbol
 _atom_site_label
 _atom_site_symmetry_multiplicity
 _atom_site_fract_x
 _atom_site_fract_y
 _atom_site_fract_z
 _atom_site_occupancy
  Zr  Zr0  1  0.60484000  1.00000000  0.42651000  1
  Zr  Zr1  1  0.60484000  1.00000000  0.57349000  1
  Zr  Zr2  1  0.10484000  0.57349000  0.00000000  1
  Zr  Zr3  1  0.10484000  0.42651000  0.00000000  1
  Zr  Zr4  1  0.39516000  1.00000000  0.42651000  1
  Zr  Zr5  1  0.39516000  1.00000000  0.57349000  1
  Zr  Zr6  1  0.89516000  0.42651000  0.00000000  1
  Zr  Zr7  1  0.89516000  0.57349000  0.00000000  1
  Zr  Zr8  1  0.50000000  0.89626000  0.50000000  1
  Zr  Zr9  1  0.50000000  0.10374000  0.50000000  1
  Zr  Zr10  1  0.00000000  0.50000000  0.89626000  1
  Zr  Zr11  1  0.00000000  0.50000000  0.10374000  1
  H  H12  1  0.59860000  0.75720000  0.39700000  1
  H  H13  1  0.80380000  0.80570000  0.27510000  1
  H  H14  1  0.74210000  0.87480000  0.33180000  1
  H  H15  1  0.59480000  0.66450000  0.36470000  1
  H  H16  1  0.67840000  0.63930000  0.34440000  1
  H  H17  1  0.61420000  0.65950000  0.29870000  1
  H  H18  1  0.59860000  0.24280000  0.60300000  1
  H  H19  1  0.80380000  0.19430000  0.72490000  1
  H  H20  1  0.74210000  0.12520000  0.66820000  1
  H  H21  1  0.59480000  0.33550000  0.63530000  1
  H  H22  1  0.67840000  0.36070000  0.65560000  1
  H  H23  1  0.61420000  0.34050000  0.70130000  1
  H  H24  1  0.09860000  0.60300000  0.75720000  1
  H  H25  1  0.30380000  0.72490000  0.80570000  1
  H  H26  1  0.24210000  0.66820000  0.87480000  1
  H  H27  1  0.09480000  0.63530000  0.66450000  1
  H  H28  1  0.17840000  0.65560000  0.63930000  1
  H  H29  1  0.11420000  0.70130000  0.65950000  1
  H  H30  1  0.09860000  0.39700000  0.24280000  1
  H  H31  1  0.30380000  0.27510000  0.19430000  1
  H  H32  1  0.24210000  0.33180000  0.12520000  1
  H  H33  1  0.09480000  0.36470000  0.33550000  1
  H  H34  1  0.17840000  0.34440000  0.36070000  1
  H  H35  1  0.11420000  0.29870000  0.34050000  1
  H  H36  1  0.40140000  0.24280000  0.39700000  1
  H  H37  1  0.19620000  0.19430000  0.27510000  1
  H  H38  1  0.25790000  0.12520000  0.33180000  1
  H  H39  1  0.40520000  0.33550000  0.36470000  1
  H  H40  1  0.32160000  0.36070000  0.34440000  1
  H  H41  1  0.38580000  0.34050000  0.29870000  1
  H  H42  1  0.40140000  0.75720000  0.60300000  1
  H  H43  1  0.19620000  0.80570000  0.72490000  1
  H  H44  1  0.25790000  0.87480000  0.66820000  1
  H  H45  1  0.40520000  0.66450000  0.63530000  1
  H  H46  1  0.32160000  0.63930000  0.65560000  1
  H  H47  1  0.38580000  0.65950000  0.70130000  1
  H  H48  1  0.90140000  0.39700000  0.75720000  1
  H  H49  1  0.69620000  0.27510000  0.80570000  1
  H  H50  1  0.75790000  0.33180000  0.87480000  1
  H  H51  1  0.90520000  0.36470000  0.66450000  1
  H  H52  1  0.82160000  0.34440000  0.63930000  1
  H  H53  1  0.88580000  0.29870000  0.65950000  1
  H  H54  1  0.90140000  0.60300000  0.24280000  1
  H  H55  1  0.69620000  0.72490000  0.19430000  1
  H  H56  1  0.75790000  0.66820000  0.12520000  1
  H  H57  1  0.90520000  0.63530000  0.33550000  1
  H  H58  1  0.82160000  0.65560000  0.36070000  1
  H  H59  1  0.88580000  0.70130000  0.34050000  1
  H  H60  1  0.40140000  0.24280000  0.60300000  1
  H  H61  1  0.19620000  0.19430000  0.72490000  1
  H  H62  1  0.25790000  0.12520000  0.66820000  1
  H  H63  1  0.40520000  0.33550000  0.63530000  1
  H  H64  1  0.32160000  0.36070000  0.65560000  1
  H  H65  1  0.38580000  0.34050000  0.70130000  1
  H  H66  1  0.40140000  0.75720000  0.39700000  1
  H  H67  1  0.19620000  0.80570000  0.27510000  1
  H  H68  1  0.25790000  0.87480000  0.33180000  1
  H  H69  1  0.40520000  0.66450000  0.36470000  1
  H  H70  1  0.32160000  0.63930000  0.34440000  1
  H  H71  1  0.38580000  0.65950000  0.29870000  1
  H  H72  1  0.90140000  0.39700000  0.24280000  1
  H  H73  1  0.69620000  0.27510000  0.19430000  1
  H  H74  1  0.75790000  0.33180000  0.12520000  1
  H  H75  1  0.90520000  0.36470000  0.33550000  1
  H  H76  1  0.82160000  0.34440000  0.36070000  1
  H  H77  1  0.88580000  0.29870000  0.34050000  1
  H  H78  1  0.90140000  0.60300000  0.75720000  1
  H  H79  1  0.69620000  0.72490000  0.80570000  1
  H  H80  1  0.75790000  0.66820000  0.87480000  1
  H  H81  1  0.90520000  0.63530000  0.66450000  1
  H  H82  1  0.82160000  0.65560000  0.63930000  1
  H  H83  1  0.88580000  0.70130000  0.65950000  1
  H  H84  1  0.59860000  0.75720000  0.60300000  1
  H  H85  1  0.80380000  0.80570000  0.72490000  1
  H  H86  1  0.74210000  0.87480000  0.66820000  1
  H  H87  1  0.59480000  0.66450000  0.63530000  1
  H  H88  1  0.67840000  0.63930000  0.65560000  1
  H  H89  1  0.61420000  0.65950000  0.70130000  1
  H  H90  1  0.59860000  0.24280000  0.39700000  1
  H  H91  1  0.80380000  0.19430000  0.27510000  1
  H  H92  1  0.74210000  0.12520000  0.33180000  1
  H  H93  1  0.59480000  0.33550000  0.36470000  1
  H  H94  1  0.67840000  0.36070000  0.34440000  1
  H  H95  1  0.61420000  0.34050000  0.29870000  1
  H  H96  1  0.09860000  0.60300000  0.24280000  1
  H  H97  1  0.30380000  0.72490000  0.19430000  1
  H  H98  1  0.24210000  0.66820000  0.12520000  1
  H  H99  1  0.09480000  0.63530000  0.33550000  1
  H  H100  1  0.17840000  0.65560000  0.36070000  1
  H  H101  1  0.11420000  0.70130000  0.34050000  1
  H  H102  1  0.09860000  0.39700000  0.75720000  1
  H  H103  1  0.30380000  0.27510000  0.80570000  1
  H  H104  1  0.24210000  0.33180000  0.87480000  1
  H  H105  1  0.09480000  0.36470000  0.66450000  1
  H  H106  1  0.17840000  0.34440000  0.63930000  1
  H  H107  1  0.11420000  0.29870000  0.65950000  1
  H  H108  1  0.13590000  1.00000000  0.59710000  1
  H  H109  1  0.12780000  1.00000000  0.42530000  1
  H  H110  1  0.86880000  0.00000000  0.55410000  1
  H  H111  1  0.86070000  0.00000000  0.38230000  1
  H  H112  1  0.63590000  0.40290000  0.00000000  1
  H  H113  1  0.62780000  0.57470000  0.00000000  1
  H  H114  1  0.36880000  0.44590000  0.00000000  1
  H  H115  1  0.36070000  0.61770000  0.00000000  1
  H  H116  1  0.00000000  1.00000000  0.60040000  1
  H  H117  1  0.00000000  1.00000000  0.37900000  1
  H  H118  1  0.50000000  0.39960000  0.00000000  1
  H  H119  1  0.50000000  0.62100000  0.00000000  1
  C  C120  1  0.62950000  0.86588000  0.40727000  1
  C  C121  1  0.66730000  0.82152000  0.37037000  1
  C  C122  1  0.64020000  0.76711000  0.37170000  1
  C  C123  1  0.67260000  0.72630000  0.33690000  1
  C  C124  1  0.73260000  0.74180000  0.29990000  1
  C  C125  1  0.76070000  0.79580000  0.29910000  1
  C  C126  1  0.72530000  0.83660000  0.33390000  1
  C  C127  1  0.63680000  0.66710000  0.33610000  1
  C  C128  1  0.62950000  0.13412000  0.59273000  1
  C  C129  1  0.66730000  0.17848000  0.62963000  1
  C  C130  1  0.64020000  0.23289000  0.62830000  1
  C  C131  1  0.67260000  0.27370000  0.66310000  1
  C  C132  1  0.73260000  0.25820000  0.70010000  1
  C  C133  1  0.76070000  0.20420000  0.70090000  1
  C  C134  1  0.72530000  0.16340000  0.66610000  1
  C  C135  1  0.63680000  0.33290000  0.66390000  1
  C  C136  1  0.12950000  0.59273000  0.86588000  1
  C  C137  1  0.16730000  0.62963000  0.82152000  1
  C  C138  1  0.14020000  0.62830000  0.76711000  1
  C  C139  1  0.17260000  0.66310000  0.72630000  1
  C  C140  1  0.23260000  0.70010000  0.74180000  1
  C  C141  1  0.26070000  0.70090000  0.79580000  1
  C  C142  1  0.22530000  0.66610000  0.83660000  1
  C  C143  1  0.13680000  0.66390000  0.66710000  1
  C  C144  1  0.12950000  0.40727000  0.13412000  1
  C  C145  1  0.16730000  0.37037000  0.17848000  1
  C  C146  1  0.14020000  0.37170000  0.23289000  1
  C  C147  1  0.17260000  0.33690000  0.27370000  1
  C  C148  1  0.23260000  0.29990000  0.25820000  1
  C  C149  1  0.26070000  0.29910000  0.20420000  1
  C  C150  1  0.22530000  0.33390000  0.16340000  1
  C  C151  1  0.13680000  0.33610000  0.33290000  1
  C  C152  1  0.37050000  0.13412000  0.40727000  1
  C  C153  1  0.33270000  0.17848000  0.37037000  1
  C  C154  1  0.35980000  0.23289000  0.37170000  1
  C  C155  1  0.32740000  0.27370000  0.33690000  1
  C  C156  1  0.26740000  0.25820000  0.29990000  1
  C  C157  1  0.23930000  0.20420000  0.29910000  1
  C  C158  1  0.27470000  0.16340000  0.33390000  1
  C  C159  1  0.36320000  0.33290000  0.33610000  1
  C  C160  1  0.37050000  0.86588000  0.59273000  1
  C  C161  1  0.33270000  0.82152000  0.62963000  1
  C  C162  1  0.35980000  0.76711000  0.62830000  1
  C  C163  1  0.32740000  0.72630000  0.66310000  1
  C  C164  1  0.26740000  0.74180000  0.70010000  1
  C  C165  1  0.23930000  0.79580000  0.70090000  1
  C  C166  1  0.27470000  0.83660000  0.66610000  1
  C  C167  1  0.36320000  0.66710000  0.66390000  1
  C  C168  1  0.87050000  0.40727000  0.86588000  1
  C  C169  1  0.83270000  0.37037000  0.82152000  1
  C  C170  1  0.85980000  0.37170000  0.76711000  1
  C  C171  1  0.82740000  0.33690000  0.72630000  1
  C  C172  1  0.76740000  0.29990000  0.74180000  1
  C  C173  1  0.73930000  0.29910000  0.79580000  1
  C  C174  1  0.77470000  0.33390000  0.83660000  1
  C  C175  1  0.86320000  0.33610000  0.66710000  1
  C  C176  1  0.87050000  0.59273000  0.13412000  1
  C  C177  1  0.83270000  0.62963000  0.17848000  1
  C  C178  1  0.85980000  0.62830000  0.23289000  1
  C  C179  1  0.82740000  0.66310000  0.27370000  1
  C  C180  1  0.76740000  0.70010000  0.25820000  1
  C  C181  1  0.73930000  0.70090000  0.20420000  1
  C  C182  1  0.77470000  0.66610000  0.16340000  1
  C  C183  1  0.86320000  0.66390000  0.33290000  1
  C  C184  1  0.37050000  0.13412000  0.59273000  1
  C  C185  1  0.33270000  0.17848000  0.62963000  1
  C  C186  1  0.35980000  0.23289000  0.62830000  1
  C  C187  1  0.32740000  0.27370000  0.66310000  1
  C  C188  1  0.26740000  0.25820000  0.70010000  1
  C  C189  1  0.23930000  0.20420000  0.70090000  1
  C  C190  1  0.27470000  0.16340000  0.66610000  1
  C  C191  1  0.36320000  0.33290000  0.66390000  1
  C  C192  1  0.37050000  0.86588000  0.40727000  1
  C  C193  1  0.33270000  0.82152000  0.37037000  1
  C  C194  1  0.35980000  0.76711000  0.37170000  1
  C  C195  1  0.32740000  0.72630000  0.33690000  1
  C  C196  1  0.26740000  0.74180000  0.29990000  1
  C  C197  1  0.23930000  0.79580000  0.29910000  1
  C  C198  1  0.27470000  0.83660000  0.33390000  1
  C  C199  1  0.36320000  0.66710000  0.33610000  1
  C  C200  1  0.87050000  0.40727000  0.13412000  1
  C  C201  1  0.83270000  0.37037000  0.17848000  1
  C  C202  1  0.85980000  0.37170000  0.23289000  1
  C  C203  1  0.82740000  0.33690000  0.27370000  1
  C  C204  1  0.76740000  0.29990000  0.25820000  1
  C  C205  1  0.73930000  0.29910000  0.20420000  1
  C  C206  1  0.77470000  0.33390000  0.16340000  1
  C  C207  1  0.86320000  0.33610000  0.33290000  1
  C  C208  1  0.87050000  0.59273000  0.86588000  1
  C  C209  1  0.83270000  0.62963000  0.82152000  1
  C  C210  1  0.85980000  0.62830000  0.76711000  1
  C  C211  1  0.82740000  0.66310000  0.72630000  1
  C  C212  1  0.76740000  0.70010000  0.74180000  1
  C  C213  1  0.73930000  0.70090000  0.79580000  1
  C  C214  1  0.77470000  0.66610000  0.83660000  1
  C  C215  1  0.86320000  0.66390000  0.66710000  1
  C  C216  1  0.62950000  0.86588000  0.59273000  1
  C  C217  1  0.66730000  0.82152000  0.62963000  1
  C  C218  1  0.64020000  0.76711000  0.62830000  1
  C  C219  1  0.67260000  0.72630000  0.66310000  1
  C  C220  1  0.73260000  0.74180000  0.70010000  1
  C  C221  1  0.76070000  0.79580000  0.70090000  1
  C  C222  1  0.72530000  0.83660000  0.66610000  1
  C  C223  1  0.63680000  0.66710000  0.66390000  1
  C  C224  1  0.62950000  0.13412000  0.40727000  1
  C  C225  1  0.66730000  0.17848000  0.37037000  1
  C  C226  1  0.64020000  0.23289000  0.37170000  1
  C  C227  1  0.67260000  0.27370000  0.33690000  1
  C  C228  1  0.73260000  0.25820000  0.29990000  1
  C  C229  1  0.76070000  0.20420000  0.29910000  1
  C  C230  1  0.72530000  0.16340000  0.33390000  1
  C  C231  1  0.63680000  0.33290000  0.33610000  1
  C  C232  1  0.12950000  0.59273000  0.13412000  1
  C  C233  1  0.16730000  0.62963000  0.17848000  1
  C  C234  1  0.14020000  0.62830000  0.23289000  1
  C  C235  1  0.17260000  0.66310000  0.27370000  1
  C  C236  1  0.23260000  0.70010000  0.25820000  1
  C  C237  1  0.26070000  0.70090000  0.20420000  1
  C  C238  1  0.22530000  0.66610000  0.16340000  1
  C  C239  1  0.13680000  0.66390000  0.33290000  1
  C  C240  1  0.12950000  0.40727000  0.86588000  1
  C  C241  1  0.16730000  0.37037000  0.82152000  1
  C  C242  1  0.14020000  0.37170000  0.76711000  1
  C  C243  1  0.17260000  0.33690000  0.72630000  1
  C  C244  1  0.23260000  0.29990000  0.74180000  1
  C  C245  1  0.26070000  0.29910000  0.79580000  1
  C  C246  1  0.22530000  0.33390000  0.83660000  1
  C  C247  1  0.13680000  0.33610000  0.66710000  1
  C  C248  1  0.23660000  0.00000000  0.52020000  1
  C  C249  1  0.73660000  0.47980000  0.00000000  1
  C  C250  1  0.14460000  1.00000000  0.50990000  1
  C  C251  1  0.10690000  1.00000000  0.56220000  1
  C  C252  1  0.02440000  0.00000000  0.56510000  1
  C  C253  1  0.97950000  1.00000000  0.51590000  1
  C  C254  1  0.01710000  1.00000000  0.46360000  1
  C  C255  1  0.09970000  1.00000000  0.46060000  1
  C  C256  1  0.89690000  1.00000000  0.51880000  1
  C  C257  1  0.85200000  0.00000000  0.46960000  1
  C  C258  1  0.88960000  1.00000000  0.41730000  1
  C  C259  1  0.97220000  1.00000000  0.41430000  1
  C  C260  1  0.76340000  1.00000000  0.47980000  1
  C  C261  1  0.64460000  0.49010000  0.00000000  1
  C  C262  1  0.60690000  0.43780000  0.00000000  1
  C  C263  1  0.52440000  0.43490000  0.00000000  1
  C  C264  1  0.47950000  0.48410000  0.00000000  1
  C  C265  1  0.51710000  0.53640000  0.00000000  1
  C  C266  1  0.59970000  0.53940000  0.00000000  1
  C  C267  1  0.39690000  0.48120000  0.00000000  1
  C  C268  1  0.35200000  0.53040000  0.00000000  1
  C  C269  1  0.38960000  0.58270000  0.00000000  1
  C  C270  1  0.47220000  0.58570000  0.00000000  1
  C  C271  1  0.26680000  0.50000000  0.00000000  1
  O  O272  1  0.57914000  0.84902000  0.44324000  1
  O  O273  1  0.64920000  0.91613000  0.39730000  1
  O  O274  1  0.57914000  0.15098000  0.55676000  1
  O  O275  1  0.64920000  0.08387000  0.60270000  1
  O  O276  1  0.07914000  0.55676000  0.84902000  1
  O  O277  1  0.14920000  0.60270000  0.91613000  1
  O  O278  1  0.07914000  0.44324000  0.15098000  1
  O  O279  1  0.14920000  0.39730000  0.08387000  1
  O  O280  1  0.42086000  0.15098000  0.44324000  1
  O  O281  1  0.35080000  0.08387000  0.39730000  1
  O  O282  1  0.42086000  0.84902000  0.55676000  1
  O  O283  1  0.35080000  0.91613000  0.60270000  1
  O  O284  1  0.92086000  0.44324000  0.84902000  1
  O  O285  1  0.85080000  0.39730000  0.91613000  1
  O  O286  1  0.92086000  0.55676000  0.15098000  1
  O  O287  1  0.85080000  0.60270000  0.08387000  1
  O  O288  1  0.42086000  0.15098000  0.55676000  1
  O  O289  1  0.35080000  0.08387000  0.60270000  1
  O  O290  1  0.42086000  0.84902000  0.44324000  1
  O  O291  1  0.35080000  0.91613000  0.39730000  1
  O  O292  1  0.92086000  0.44324000  0.15098000  1
  O  O293  1  0.85080000  0.39730000  0.08387000  1
  O  O294  1  0.92086000  0.55676000  0.84902000  1
  O  O295  1  0.85080000  0.60270000  0.91613000  1
  O  O296  1  0.57914000  0.84902000  0.55676000  1
  O  O297  1  0.64920000  0.91613000  0.60270000  1
  O  O298  1  0.57914000  0.15098000  0.44324000  1
  O  O299  1  0.64920000  0.08387000  0.39730000  1
  O  O300  1  0.07914000  0.55676000  0.15098000  1
  O  O301  1  0.14920000  0.60270000  0.08387000  1
  O  O302  1  0.07914000  0.44324000  0.84902000  1
  O  O303  1  0.14920000  0.39730000  0.91613000  1
  O  O304  1  0.28300000  1.00000000  0.56320000  1
  O  O305  1  0.26220000  0.00000000  0.46920000  1
  O  O306  1  0.78300000  0.43680000  0.00000000  1
  O  O307  1  0.76220000  0.53080000  0.00000000  1
  O  O308  1  0.24060000  0.44937000  0.00000000  1
  O  O309  1  0.24060000  0.55063000  0.00000000  1
  O  O310  1  0.71700000  1.00000000  0.43680000  1
  O  O311  1  0.73780000  0.00000000  0.53080000  1
  O  O312  1  0.50000000  0.94965000  0.42540000  1
  O  O313  1  0.50000000  0.05035000  0.57460000  1
  O  O314  1  0.00000000  0.57460000  0.94965000  1
  O  O315  1  0.00000000  0.42540000  0.05035000  1
  O  O316  1  0.50000000  0.05035000  0.42540000  1
  O  O317  1  0.50000000  0.94965000  0.57460000  1
  O  O318  1  1.00000000  0.42540000  0.94965000  1
  O  O319  1  0.00000000  0.57460000  0.05035000  1
  O  O320  1  0.60190000  0.94876000  0.50000000  1
  O  O321  1  0.60190000  0.05124000  0.50000000  1
  O  O322  1  0.10190000  0.50000000  0.94876000  1
  O  O323  1  0.10190000  0.50000000  0.05124000  1
  O  O324  1  0.39810000  0.05124000  0.50000000  1
  O  O325  1  0.39810000  0.94876000  0.50000000  1
  O  O326  1  0.89810000  0.50000000  0.94876000  1
  O  O327  1  0.89810000  0.50000000  0.05124000  1
