# generated using pymatgen
data_Zr3CuH34C52I(NO8)2
_symmetry_space_group_name_H-M   'P 1'
_cell_length_a   18.80490000
_cell_length_b   23.08670000
_cell_length_c   23.08670000
_cell_angle_alpha   90.00000000
_cell_angle_beta   90.00000000
_cell_angle_gamma   90.00000000
_symmetry_Int_Tables_number   1
_chemical_formula_structural   Zr3CuH34C52I(NO8)2
_chemical_formula_sum   'Zr12 Cu4 H136 C208 I4 N8 O64'
_cell_volume   10022.93115654
_cell_formula_units_Z   4
loop_
 _symmetry_equiv_pos_site_id
 _symmetry_equiv_pos_as_xyz
  1  'x, y, z'
loop_
 _atom_site_type_symbol
 _atom_site_label
 _atom_site_symmetry_multiplicity
 _atom_site_fract_x
 _atom_site_fract_y
 _atom_site_fract_z
 _atom_site_occupancy
  Zr  Zr0  1  0.09277000  0.50000000  0.07535000  1
  Zr  Zr1  1  0.09277000  0.50000000  0.92465000  1
  Zr  Zr2  1  0.59277000  0.92465000  0.50000000  1
  Zr  Zr3  1  0.59277000  0.07535000  0.50000000  1
  Zr  Zr4  1  0.90723000  0.50000000  0.07535000  1
  Zr  Zr5  1  0.90723000  0.50000000  0.92465000  1
  Zr  Zr6  1  0.40723000  0.07535000  0.50000000  1
  Zr  Zr7  1  0.40723000  0.92465000  0.50000000  1
  Zr  Zr8  1  0.00000000  0.39211000  0.00000000  1
  Zr  Zr9  1  1.00000000  0.60789000  0.00000000  1
  Zr  Zr10  1  0.50000000  1.00000000  0.39211000  1
  Zr  Zr11  1  0.50000000  0.00000000  0.60789000  1
  Cu  Cu12  1  0.50000000  0.50000000  0.10360000  1
  Cu  Cu13  1  0.50000000  0.50000000  0.89640000  1
  Cu  Cu14  1  1.00000000  0.89640000  0.50000000  1
  Cu  Cu15  1  0.00000000  0.10360000  0.50000000  1
  H  H16  1  0.17990000  0.13250000  0.16790000  1
  H  H17  1  0.23550000  0.37540000  0.15170000  1
  H  H18  1  0.30170000  0.31100000  0.20910000  1
  H  H19  1  0.08510000  0.25110000  0.12860000  1
  H  H20  1  0.10120000  0.15460000  0.16480000  1
  H  H21  1  0.12590000  0.15970000  0.23090000  1
  H  H22  1  0.17990000  0.86750000  0.83210000  1
  H  H23  1  0.23550000  0.62460000  0.84830000  1
  H  H24  1  0.30170000  0.68900000  0.79090000  1
  H  H25  1  0.08510000  0.74890000  0.87140000  1
  H  H26  1  0.10120000  0.84540000  0.83520000  1
  H  H27  1  0.12590000  0.84030000  0.76910000  1
  H  H28  1  0.67990000  0.83210000  0.13250000  1
  H  H29  1  0.73550000  0.84830000  0.37540000  1
  H  H30  1  0.80170000  0.79090000  0.31100000  1
  H  H31  1  0.58510000  0.87140000  0.25110000  1
  H  H32  1  0.60120000  0.83520000  0.15460000  1
  H  H33  1  0.62590000  0.76910000  0.15970000  1
  H  H34  1  0.67990000  0.16790000  0.86750000  1
  H  H35  1  0.73550000  0.15170000  0.62460000  1
  H  H36  1  0.80170000  0.20910000  0.68900000  1
  H  H37  1  0.58510000  0.12860000  0.74890000  1
  H  H38  1  0.60120000  0.16480000  0.84540000  1
  H  H39  1  0.62590000  0.23090000  0.84030000  1
  H  H40  1  0.82010000  0.86750000  0.16790000  1
  H  H41  1  0.95830000  0.39060000  0.40620000  1
  H  H42  1  0.76450000  0.62460000  0.15170000  1
  H  H43  1  0.69830000  0.68900000  0.20910000  1
  H  H44  1  0.91490000  0.74890000  0.12860000  1
  H  H45  1  0.89880000  0.84540000  0.16480000  1
  H  H46  1  0.87410000  0.84030000  0.23090000  1
  H  H47  1  0.82010000  0.13250000  0.83210000  1
  H  H48  1  0.95830000  0.60940000  0.59380000  1
  H  H49  1  0.76450000  0.37540000  0.84830000  1
  H  H50  1  0.69830000  0.31100000  0.79090000  1
  H  H51  1  0.91490000  0.25110000  0.87140000  1
  H  H52  1  0.89880000  0.15460000  0.83520000  1
  H  H53  1  0.87410000  0.15970000  0.76910000  1
  H  H54  1  0.32010000  0.16790000  0.13250000  1
  H  H55  1  0.45830000  0.40620000  0.60940000  1
  H  H56  1  0.26450000  0.15170000  0.37540000  1
  H  H57  1  0.19830000  0.20910000  0.31100000  1
  H  H58  1  0.41490000  0.12860000  0.25110000  1
  H  H59  1  0.39880000  0.16480000  0.15460000  1
  H  H60  1  0.37410000  0.23090000  0.15970000  1
  H  H61  1  0.32010000  0.83210000  0.86750000  1
  H  H62  1  0.45830000  0.59380000  0.39060000  1
  H  H63  1  0.26450000  0.84830000  0.62460000  1
  H  H64  1  0.19830000  0.79090000  0.68900000  1
  H  H65  1  0.41490000  0.87140000  0.74890000  1
  H  H66  1  0.39880000  0.83520000  0.84540000  1
  H  H67  1  0.37410000  0.76910000  0.84030000  1
  H  H68  1  0.82010000  0.86750000  0.83210000  1
  H  H69  1  0.76450000  0.62460000  0.84830000  1
  H  H70  1  0.69830000  0.68900000  0.79090000  1
  H  H71  1  0.91490000  0.74890000  0.87140000  1
  H  H72  1  0.89880000  0.84540000  0.83520000  1
  H  H73  1  0.87410000  0.84030000  0.76910000  1
  H  H74  1  0.82010000  0.13250000  0.16790000  1
  H  H75  1  0.76450000  0.37540000  0.15170000  1
  H  H76  1  0.69830000  0.31100000  0.20910000  1
  H  H77  1  0.91490000  0.25110000  0.12860000  1
  H  H78  1  0.89880000  0.15460000  0.16480000  1
  H  H79  1  0.87410000  0.15970000  0.23090000  1
  H  H80  1  0.32010000  0.16790000  0.86750000  1
  H  H81  1  0.26450000  0.15170000  0.62460000  1
  H  H82  1  0.19830000  0.20910000  0.68900000  1
  H  H83  1  0.41490000  0.12860000  0.74890000  1
  H  H84  1  0.39880000  0.16480000  0.84540000  1
  H  H85  1  0.37410000  0.23090000  0.84030000  1
  H  H86  1  0.32010000  0.83210000  0.13250000  1
  H  H87  1  0.26450000  0.84830000  0.37540000  1
  H  H88  1  0.19830000  0.79090000  0.31100000  1
  H  H89  1  0.41490000  0.87140000  0.25110000  1
  H  H90  1  0.39880000  0.83520000  0.15460000  1
  H  H91  1  0.37410000  0.76910000  0.15970000  1
  H  H92  1  0.17990000  0.13250000  0.83210000  1
  H  H93  1  0.04170000  0.60940000  0.59380000  1
  H  H94  1  0.23550000  0.37540000  0.84830000  1
  H  H95  1  0.30170000  0.31100000  0.79090000  1
  H  H96  1  0.08510000  0.25110000  0.87140000  1
  H  H97  1  0.10120000  0.15460000  0.83520000  1
  H  H98  1  0.12590000  0.15970000  0.76910000  1
  H  H99  1  0.17990000  0.86750000  0.16790000  1
  H  H100  1  0.04170000  0.39060000  0.40620000  1
  H  H101  1  0.23550000  0.62460000  0.15170000  1
  H  H102  1  0.30170000  0.68900000  0.20910000  1
  H  H103  1  0.08510000  0.74890000  0.12860000  1
  H  H104  1  0.10120000  0.84540000  0.16480000  1
  H  H105  1  0.12590000  0.84030000  0.23090000  1
  H  H106  1  0.67990000  0.83210000  0.86750000  1
  H  H107  1  0.54170000  0.59380000  0.39060000  1
  H  H108  1  0.73550000  0.84830000  0.62460000  1
  H  H109  1  0.80170000  0.79090000  0.68900000  1
  H  H110  1  0.58510000  0.87140000  0.74890000  1
  H  H111  1  0.60120000  0.83520000  0.84540000  1
  H  H112  1  0.62590000  0.76910000  0.84030000  1
  H  H113  1  0.67990000  0.16790000  0.13250000  1
  H  H114  1  0.54170000  0.40620000  0.60940000  1
  H  H115  1  0.73550000  0.15170000  0.37540000  1
  H  H116  1  0.80170000  0.20910000  0.31100000  1
  H  H117  1  0.58510000  0.12860000  0.25110000  1
  H  H118  1  0.60120000  0.16480000  0.15460000  1
  H  H119  1  0.62590000  0.23090000  0.15970000  1
  H  H120  1  0.10840000  0.50000000  0.26310000  1
  H  H121  1  0.10860000  0.50000000  0.36540000  1
  H  H122  1  0.32530000  0.50000000  0.08810000  1
  H  H123  1  0.10840000  0.50000000  0.73690000  1
  H  H124  1  0.10860000  0.50000000  0.63460000  1
  H  H125  1  0.32530000  0.50000000  0.91190000  1
  H  H126  1  0.60840000  0.73690000  0.50000000  1
  H  H127  1  0.60860000  0.63460000  0.50000000  1
  H  H128  1  0.82530000  0.91190000  0.50000000  1
  H  H129  1  0.60840000  0.26310000  0.50000000  1
  H  H130  1  0.60860000  0.36540000  0.50000000  1
  H  H131  1  0.82530000  0.08810000  0.50000000  1
  H  H132  1  0.89160000  0.50000000  0.26310000  1
  H  H133  1  0.89140000  0.50000000  0.36540000  1
  H  H134  1  0.67470000  0.50000000  0.08810000  1
  H  H135  1  0.89160000  0.50000000  0.73690000  1
  H  H136  1  0.89140000  0.50000000  0.63460000  1
  H  H137  1  0.67470000  0.50000000  0.91190000  1
  H  H138  1  0.39160000  0.26310000  0.50000000  1
  H  H139  1  0.39140000  0.36540000  0.50000000  1
  H  H140  1  0.17470000  0.08810000  0.50000000  1
  H  H141  1  0.39160000  0.73690000  0.50000000  1
  H  H142  1  0.39140000  0.63460000  0.50000000  1
  H  H143  1  0.17470000  0.91190000  0.50000000  1
  H  H144  1  1.00000000  0.59260000  0.45200000  1
  H  H145  1  0.00000000  0.40740000  0.54800000  1
  H  H146  1  0.50000000  0.54800000  0.59260000  1
  H  H147  1  0.50000000  0.45200000  0.40740000  1
  H  H148  1  1.00000000  0.35930000  0.45600000  1
  H  H149  1  0.00000000  0.64070000  0.54400000  1
  H  H150  1  0.50000000  0.45600000  0.64070000  1
  H  H151  1  0.50000000  0.54400000  0.35930000  1
  C  C152  1  0.11780000  0.36500000  0.09920000  1
  C  C153  1  0.15660000  0.32000000  0.13460000  1
  C  C154  1  0.22800000  0.23770000  0.19970000  1
  C  C155  1  0.15420000  0.31900000  0.13490000  1
  C  C156  1  0.21850000  0.33720000  0.15860000  1
  C  C157  1  0.25780000  0.29890000  0.19270000  1
  C  C158  1  0.16850000  0.22510000  0.17890000  1
  C  C159  1  0.12900000  0.26320000  0.14490000  1
  C  C160  1  0.14140000  0.16300000  0.19050000  1
  C  C161  1  0.11780000  0.63500000  0.90080000  1
  C  C162  1  0.15660000  0.68000000  0.86540000  1
  C  C163  1  0.22800000  0.76230000  0.80030000  1
  C  C164  1  0.15420000  0.68100000  0.86510000  1
  C  C165  1  0.21850000  0.66280000  0.84140000  1
  C  C166  1  0.25780000  0.70110000  0.80730000  1
  C  C167  1  0.16850000  0.77490000  0.82110000  1
  C  C168  1  0.12900000  0.73680000  0.85510000  1
  C  C169  1  0.14140000  0.83700000  0.80950000  1
  C  C170  1  0.61780000  0.90080000  0.36500000  1
  C  C171  1  0.65660000  0.86540000  0.32000000  1
  C  C172  1  0.72800000  0.80030000  0.23770000  1
  C  C173  1  0.65420000  0.86510000  0.31900000  1
  C  C174  1  0.71850000  0.84140000  0.33720000  1
  C  C175  1  0.75780000  0.80730000  0.29890000  1
  C  C176  1  0.66850000  0.82110000  0.22510000  1
  C  C177  1  0.62900000  0.85510000  0.26320000  1
  C  C178  1  0.64140000  0.80950000  0.16300000  1
  C  C179  1  0.61780000  0.09920000  0.63500000  1
  C  C180  1  0.65660000  0.13460000  0.68000000  1
  C  C181  1  0.72800000  0.19970000  0.76230000  1
  C  C182  1  0.65420000  0.13490000  0.68100000  1
  C  C183  1  0.71850000  0.15860000  0.66280000  1
  C  C184  1  0.75780000  0.19270000  0.70110000  1
  C  C185  1  0.66850000  0.17890000  0.77490000  1
  C  C186  1  0.62900000  0.14490000  0.73680000  1
  C  C187  1  0.64140000  0.19050000  0.83700000  1
  C  C188  1  0.88220000  0.63500000  0.09920000  1
  C  C189  1  0.84340000  0.68000000  0.13460000  1
  C  C190  1  0.77200000  0.76230000  0.19970000  1
  C  C191  1  0.84580000  0.68100000  0.13490000  1
  C  C192  1  0.78150000  0.66280000  0.15860000  1
  C  C193  1  0.74220000  0.70110000  0.19270000  1
  C  C194  1  0.83150000  0.77490000  0.17890000  1
  C  C195  1  0.87100000  0.73680000  0.14490000  1
  C  C196  1  0.85860000  0.83700000  0.19050000  1
  C  C197  1  0.88220000  0.36500000  0.90080000  1
  C  C198  1  0.84340000  0.32000000  0.86540000  1
  C  C199  1  0.77200000  0.23770000  0.80030000  1
  C  C200  1  0.84580000  0.31900000  0.86510000  1
  C  C201  1  0.78150000  0.33720000  0.84140000  1
  C  C202  1  0.74220000  0.29890000  0.80730000  1
  C  C203  1  0.83150000  0.22510000  0.82110000  1
  C  C204  1  0.87100000  0.26320000  0.85510000  1
  C  C205  1  0.85860000  0.16300000  0.80950000  1
  C  C206  1  0.38220000  0.09920000  0.36500000  1
  C  C207  1  0.34340000  0.13460000  0.32000000  1
  C  C208  1  0.27200000  0.19970000  0.23770000  1
  C  C209  1  0.34580000  0.13490000  0.31900000  1
  C  C210  1  0.28150000  0.15860000  0.33720000  1
  C  C211  1  0.24220000  0.19270000  0.29890000  1
  C  C212  1  0.33150000  0.17890000  0.22510000  1
  C  C213  1  0.37100000  0.14490000  0.26320000  1
  C  C214  1  0.35860000  0.19050000  0.16300000  1
  C  C215  1  0.38220000  0.90080000  0.63500000  1
  C  C216  1  0.34340000  0.86540000  0.68000000  1
  C  C217  1  0.27200000  0.80030000  0.76230000  1
  C  C218  1  0.34580000  0.86510000  0.68100000  1
  C  C219  1  0.28150000  0.84140000  0.66280000  1
  C  C220  1  0.24220000  0.80730000  0.70110000  1
  C  C221  1  0.33150000  0.82110000  0.77490000  1
  C  C222  1  0.37100000  0.85510000  0.73680000  1
  C  C223  1  0.35860000  0.80950000  0.83700000  1
  C  C224  1  0.88220000  0.63500000  0.90080000  1
  C  C225  1  0.84340000  0.68000000  0.86540000  1
  C  C226  1  0.77200000  0.76230000  0.80030000  1
  C  C227  1  0.84580000  0.68100000  0.86510000  1
  C  C228  1  0.78150000  0.66280000  0.84140000  1
  C  C229  1  0.74220000  0.70110000  0.80730000  1
  C  C230  1  0.83150000  0.77490000  0.82110000  1
  C  C231  1  0.87100000  0.73680000  0.85510000  1
  C  C232  1  0.85860000  0.83700000  0.80950000  1
  C  C233  1  0.88220000  0.36500000  0.09920000  1
  C  C234  1  0.84340000  0.32000000  0.13460000  1
  C  C235  1  0.77200000  0.23770000  0.19970000  1
  C  C236  1  0.84580000  0.31900000  0.13490000  1
  C  C237  1  0.78150000  0.33720000  0.15860000  1
  C  C238  1  0.74220000  0.29890000  0.19270000  1
  C  C239  1  0.83150000  0.22510000  0.17890000  1
  C  C240  1  0.87100000  0.26320000  0.14490000  1
  C  C241  1  0.85860000  0.16300000  0.19050000  1
  C  C242  1  0.38220000  0.09920000  0.63500000  1
  C  C243  1  0.34340000  0.13460000  0.68000000  1
  C  C244  1  0.27200000  0.19970000  0.76230000  1
  C  C245  1  0.34580000  0.13490000  0.68100000  1
  C  C246  1  0.28150000  0.15860000  0.66280000  1
  C  C247  1  0.24220000  0.19270000  0.70110000  1
  C  C248  1  0.33150000  0.17890000  0.77490000  1
  C  C249  1  0.37100000  0.14490000  0.73680000  1
  C  C250  1  0.35860000  0.19050000  0.83700000  1
  C  C251  1  0.38220000  0.90080000  0.36500000  1
  C  C252  1  0.34340000  0.86540000  0.32000000  1
  C  C253  1  0.27200000  0.80030000  0.23770000  1
  C  C254  1  0.34580000  0.86510000  0.31900000  1
  C  C255  1  0.28150000  0.84140000  0.33720000  1
  C  C256  1  0.24220000  0.80730000  0.29890000  1
  C  C257  1  0.33150000  0.82110000  0.22510000  1
  C  C258  1  0.37100000  0.85510000  0.26320000  1
  C  C259  1  0.35860000  0.80950000  0.16300000  1
  C  C260  1  0.11780000  0.36500000  0.90080000  1
  C  C261  1  0.15660000  0.32000000  0.86540000  1
  C  C262  1  0.22800000  0.23770000  0.80030000  1
  C  C263  1  0.15420000  0.31900000  0.86510000  1
  C  C264  1  0.21850000  0.33720000  0.84140000  1
  C  C265  1  0.25780000  0.29890000  0.80730000  1
  C  C266  1  0.16850000  0.22510000  0.82110000  1
  C  C267  1  0.12900000  0.26320000  0.85510000  1
  C  C268  1  0.14140000  0.16300000  0.80950000  1
  C  C269  1  0.11780000  0.63500000  0.09920000  1
  C  C270  1  0.15660000  0.68000000  0.13460000  1
  C  C271  1  0.22800000  0.76230000  0.19970000  1
  C  C272  1  0.15420000  0.68100000  0.13490000  1
  C  C273  1  0.21850000  0.66280000  0.15860000  1
  C  C274  1  0.25780000  0.70110000  0.19270000  1
  C  C275  1  0.16850000  0.77490000  0.17890000  1
  C  C276  1  0.12900000  0.73680000  0.14490000  1
  C  C277  1  0.14140000  0.83700000  0.19050000  1
  C  C278  1  0.61780000  0.90080000  0.63500000  1
  C  C279  1  0.65660000  0.86540000  0.68000000  1
  C  C280  1  0.72800000  0.80030000  0.76230000  1
  C  C281  1  0.65420000  0.86510000  0.68100000  1
  C  C282  1  0.71850000  0.84140000  0.66280000  1
  C  C283  1  0.75780000  0.80730000  0.70110000  1
  C  C284  1  0.66850000  0.82110000  0.77490000  1
  C  C285  1  0.62900000  0.85510000  0.73680000  1
  C  C286  1  0.64140000  0.80950000  0.83700000  1
  C  C287  1  0.61780000  0.09920000  0.36500000  1
  C  C288  1  0.65660000  0.13460000  0.32000000  1
  C  C289  1  0.72800000  0.19970000  0.23770000  1
  C  C290  1  0.65420000  0.13490000  0.31900000  1
  C  C291  1  0.71850000  0.15860000  0.33720000  1
  C  C292  1  0.75780000  0.19270000  0.29890000  1
  C  C293  1  0.66850000  0.17890000  0.22510000  1
  C  C294  1  0.62900000  0.14490000  0.26320000  1
  C  C295  1  0.64140000  0.19050000  0.16300000  1
  C  C296  1  0.06490000  0.50000000  0.28410000  1
  C  C297  1  0.06510000  0.50000000  0.34450000  1
  C  C298  1  0.35090000  0.50000000  0.05210000  1
  C  C299  1  0.06490000  0.50000000  0.71590000  1
  C  C300  1  0.06510000  0.50000000  0.65550000  1
  C  C301  1  0.35090000  0.50000000  0.94790000  1
  C  C302  1  0.56490000  0.71590000  0.50000000  1
  C  C303  1  0.56510000  0.65550000  0.50000000  1
  C  C304  1  0.85090000  0.94790000  0.50000000  1
  C  C305  1  0.56490000  0.28410000  0.50000000  1
  C  C306  1  0.56510000  0.34450000  0.50000000  1
  C  C307  1  0.85090000  0.05210000  0.50000000  1
  C  C308  1  0.93510000  0.50000000  0.28410000  1
  C  C309  1  0.93490000  0.50000000  0.34450000  1
  C  C310  1  0.64910000  0.50000000  0.05210000  1
  C  C311  1  0.93510000  0.50000000  0.71590000  1
  C  C312  1  0.93490000  0.50000000  0.65550000  1
  C  C313  1  0.64910000  0.50000000  0.94790000  1
  C  C314  1  0.43510000  0.28410000  0.50000000  1
  C  C315  1  0.43490000  0.34450000  0.50000000  1
  C  C316  1  0.14910000  0.05210000  0.50000000  1
  C  C317  1  0.43510000  0.71590000  0.50000000  1
  C  C318  1  0.43490000  0.65550000  0.50000000  1
  C  C319  1  0.14910000  0.94790000  0.50000000  1
  C  C320  1  1.00000000  0.44620000  0.46660000  1
  C  C321  1  1.00000000  0.55380000  0.53340000  1
  C  C322  1  0.50000000  0.53340000  0.44620000  1
  C  C323  1  0.50000000  0.46660000  0.55380000  1
  C  C324  1  1.00000000  0.39190000  0.43020000  1
  C  C325  1  0.00000000  0.55380000  0.46660000  1
  C  C326  1  1.00000000  0.60810000  0.56980000  1
  C  C327  1  0.00000000  0.44620000  0.53340000  1
  C  C328  1  0.50000000  0.43020000  0.60810000  1
  C  C329  1  0.50000000  0.46660000  0.44620000  1
  C  C330  1  0.50000000  0.56980000  0.39190000  1
  C  C331  1  0.50000000  0.53340000  0.55380000  1
  C  C332  1  1.00000000  0.50000000  0.19100000  1
  C  C333  1  0.00000000  0.50000000  0.25480000  1
  C  C334  1  1.00000000  0.50000000  0.37370000  1
  C  C335  1  0.00000000  0.50000000  0.43920000  1
  C  C336  1  0.00000000  0.50000000  0.80900000  1
  C  C337  1  0.00000000  0.50000000  0.74520000  1
  C  C338  1  0.00000000  0.50000000  0.62630000  1
  C  C339  1  1.00000000  0.50000000  0.56080000  1
  C  C340  1  0.50000000  0.80900000  0.50000000  1
  C  C341  1  0.50000000  0.74520000  0.50000000  1
  C  C342  1  0.50000000  0.62630000  0.50000000  1
  C  C343  1  0.50000000  0.56080000  0.50000000  1
  C  C344  1  0.50000000  0.19100000  0.50000000  1
  C  C345  1  0.50000000  0.25480000  0.50000000  1
  C  C346  1  0.50000000  0.37370000  0.50000000  1
  C  C347  1  0.50000000  0.43920000  0.50000000  1
  C  C348  1  0.23580000  0.50000000  0.00000000  1
  C  C349  1  0.31380000  0.50000000  0.00000000  1
  C  C350  1  0.46050000  0.50000000  0.00000000  1
  C  C351  1  0.73580000  0.00000000  0.50000000  1
  C  C352  1  0.81380000  0.00000000  0.50000000  1
  C  C353  1  0.96050000  0.00000000  0.50000000  1
  C  C354  1  0.76420000  0.50000000  0.00000000  1
  C  C355  1  0.68620000  0.50000000  0.00000000  1
  C  C356  1  0.53950000  0.50000000  0.00000000  1
  C  C357  1  0.26420000  0.00000000  0.50000000  1
  C  C358  1  0.18620000  0.00000000  0.50000000  1
  C  C359  1  0.03950000  0.00000000  0.50000000  1
  I  I360  1  0.50000000  0.50274000  0.22986000  1
  I  I361  1  1.00000000  0.77014000  0.50274000  1
  I  I362  1  0.00000000  0.22986000  0.49726000  1
  I  I363  1  0.50000000  0.50274000  0.77014000  1
  N  N364  1  0.42440000  0.50000000  0.05130000  1
  N  N365  1  0.42440000  0.50000000  0.94870000  1
  N  N366  1  0.92440000  0.94870000  0.50000000  1
  N  N367  1  0.92440000  0.05130000  0.50000000  1
  N  N368  1  0.57560000  0.50000000  0.05130000  1
  N  N369  1  0.57560000  0.50000000  0.94870000  1
  N  N370  1  0.07560000  0.05130000  0.50000000  1
  N  N371  1  0.07560000  0.94870000  0.50000000  1
  O  O372  1  0.07230000  0.34300000  0.05910000  1
  O  O373  1  0.13700000  0.41890000  0.10960000  1
  O  O374  1  0.07230000  0.65700000  0.94090000  1
  O  O375  1  0.13700000  0.58110000  0.89040000  1
  O  O376  1  0.57230000  0.94090000  0.34300000  1
  O  O377  1  0.63700000  0.89040000  0.41890000  1
  O  O378  1  0.57230000  0.05910000  0.65700000  1
  O  O379  1  0.63700000  0.10960000  0.58110000  1
  O  O380  1  0.92770000  0.65700000  0.05910000  1
  O  O381  1  0.86300000  0.58110000  0.10960000  1
  O  O382  1  0.92770000  0.34300000  0.94090000  1
  O  O383  1  0.86300000  0.41890000  0.89040000  1
  O  O384  1  0.42770000  0.05910000  0.34300000  1
  O  O385  1  0.36300000  0.10960000  0.41890000  1
  O  O386  1  0.42770000  0.94090000  0.65700000  1
  O  O387  1  0.36300000  0.89040000  0.58110000  1
  O  O388  1  0.92770000  0.65700000  0.94090000  1
  O  O389  1  0.86300000  0.58110000  0.89040000  1
  O  O390  1  0.92770000  0.34300000  0.05910000  1
  O  O391  1  0.86300000  0.41890000  0.10960000  1
  O  O392  1  0.42770000  0.05910000  0.65700000  1
  O  O393  1  0.36300000  0.10960000  0.58110000  1
  O  O394  1  0.42770000  0.94090000  0.34300000  1
  O  O395  1  0.36300000  0.89040000  0.41890000  1
  O  O396  1  0.07230000  0.34300000  0.94090000  1
  O  O397  1  0.13700000  0.41890000  0.89040000  1
  O  O398  1  0.07230000  0.65700000  0.05910000  1
  O  O399  1  0.13700000  0.58110000  0.10960000  1
  O  O400  1  0.57230000  0.94090000  0.65700000  1
  O  O401  1  0.63700000  0.89040000  0.58110000  1
  O  O402  1  0.57230000  0.05910000  0.34300000  1
  O  O403  1  0.63700000  0.10960000  0.41890000  1
  O  O404  1  0.06190000  0.50000000  0.16720000  1
  O  O405  1  0.20600000  0.50000000  0.04890000  1
  O  O406  1  0.06190000  0.50000000  0.83280000  1
  O  O407  1  0.20600000  0.50000000  0.95110000  1
  O  O408  1  0.56190000  0.83280000  0.50000000  1
  O  O409  1  0.70600000  0.95110000  0.50000000  1
  O  O410  1  0.56190000  0.16720000  0.50000000  1
  O  O411  1  0.70600000  0.04890000  0.50000000  1
  O  O412  1  0.93810000  0.50000000  0.16720000  1
  O  O413  1  0.79400000  0.50000000  0.04890000  1
  O  O414  1  0.93810000  0.50000000  0.83280000  1
  O  O415  1  0.79400000  0.50000000  0.95110000  1
  O  O416  1  0.43810000  0.16720000  0.50000000  1
  O  O417  1  0.29400000  0.04890000  0.50000000  1
  O  O418  1  0.43810000  0.83280000  0.50000000  1
  O  O419  1  0.29400000  0.95110000  0.50000000  1
  O  O420  1  0.09100000  0.44640000  0.00000000  1
  O  O421  1  0.09100000  0.55360000  0.00000000  1
  O  O422  1  0.59100000  0.00000000  0.44640000  1
  O  O423  1  0.59100000  1.00000000  0.55360000  1
  O  O424  1  0.90900000  0.55360000  0.00000000  1
  O  O425  1  0.90900000  0.44640000  0.00000000  1
  O  O426  1  0.40900000  0.00000000  0.44640000  1
  O  O427  1  0.40900000  1.00000000  0.55360000  1
  O  O428  1  1.00000000  0.44620000  0.07450000  1
  O  O429  1  0.00000000  0.55380000  0.92550000  1
  O  O430  1  0.50000000  0.92550000  0.44620000  1
  O  O431  1  0.50000000  0.07450000  0.55380000  1
  O  O432  1  1.00000000  0.55380000  0.07450000  1
  O  O433  1  0.00000000  0.44620000  0.92550000  1
  O  O434  1  0.50000000  0.07450000  0.44620000  1
  O  O435  1  0.50000000  0.92550000  0.55380000  1
