# generated using pymatgen
data_Zr3H25(C17O7)2
_symmetry_space_group_name_H-M   'P 1'
_cell_length_a   12.66500000
_cell_length_b   35.05300000
_cell_length_c   35.05300000
_cell_angle_alpha   90.00000000
_cell_angle_beta   90.00000000
_cell_angle_gamma   90.00000000
_symmetry_Int_Tables_number   1
_chemical_formula_structural   Zr3H25(C17O7)2
_chemical_formula_sum   'Zr24 H200 C272 O112'
_cell_volume   15561.64772598
_cell_formula_units_Z   8
loop_
 _symmetry_equiv_pos_site_id
 _symmetry_equiv_pos_as_xyz
  1  'x, y, z'
loop_
 _atom_site_type_symbol
 _atom_site_label
 _atom_site_symmetry_multiplicity
 _atom_site_fract_x
 _atom_site_fract_y
 _atom_site_fract_z
 _atom_site_occupancy
  Zr  Zr0  1  0.62839000  0.53803000  0.53803000  1
  Zr  Zr1  1  0.65183000  0.46786000  0.46786000  1
  Zr  Zr2  1  0.50000000  0.54969000  0.45031000  1
  Zr  Zr3  1  0.12839000  0.96197000  0.53803000  1
  Zr  Zr4  1  0.15183000  0.03214000  0.46786000  1
  Zr  Zr5  1  0.00000000  0.04969000  0.54969000  1
  Zr  Zr6  1  0.62839000  0.96197000  0.96197000  1
  Zr  Zr7  1  0.65183000  0.03214000  0.03214000  1
  Zr  Zr8  1  0.50000000  0.95031000  0.04969000  1
  Zr  Zr9  1  0.12839000  0.53803000  0.96197000  1
  Zr  Zr10  1  0.15183000  0.46786000  0.03214000  1
  Zr  Zr11  1  0.00000000  0.45031000  0.95031000  1
  Zr  Zr12  1  0.87161000  0.03803000  0.46197000  1
  Zr  Zr13  1  0.84817000  0.96786000  0.53214000  1
  Zr  Zr14  1  0.37161000  0.03803000  0.03803000  1
  Zr  Zr15  1  0.34817000  0.96786000  0.96786000  1
  Zr  Zr16  1  0.87161000  0.46197000  0.03803000  1
  Zr  Zr17  1  0.84817000  0.53214000  0.96786000  1
  Zr  Zr18  1  0.37161000  0.46197000  0.46197000  1
  Zr  Zr19  1  0.34817000  0.53214000  0.53214000  1
  Zr  Zr20  1  0.50000000  0.45031000  0.54969000  1
  Zr  Zr21  1  0.00000000  0.95031000  0.45031000  1
  Zr  Zr22  1  0.50000000  0.04969000  0.95031000  1
  Zr  Zr23  1  0.00000000  0.54969000  0.04969000  1
  H  H24  1  0.76750000  0.53270000  0.65670000  1
  H  H25  1  0.59560000  0.43550000  0.66540000  1
  H  H26  1  0.68370000  0.52210000  0.85530000  1
  H  H27  1  0.85290000  0.43870000  0.77080000  1
  H  H28  1  0.89370000  0.43700000  0.83590000  1
  H  H29  1  0.64350000  0.56030000  0.78160000  1
  H  H30  1  0.55160000  0.53800000  0.80360000  1
  H  H31  1  0.58190000  0.52620000  0.76080000  1
  H  H32  1  0.82110000  0.52730000  0.71990000  1
  H  H33  1  0.61220000  0.42860000  0.76970000  1
  H  H34  1  0.62300000  0.39950000  0.73480000  1
  H  H35  1  0.52070000  0.42600000  0.73840000  1
  H  H36  1  0.99540000  0.52810000  0.52810000  1
  H  H37  1  0.26750000  0.84330000  0.53270000  1
  H  H38  1  0.09560000  0.83460000  0.43550000  1
  H  H39  1  0.18370000  0.64470000  0.52210000  1
  H  H40  1  0.35290000  0.72920000  0.43870000  1
  H  H41  1  0.39370000  0.66410000  0.43700000  1
  H  H42  1  0.14350000  0.71840000  0.56030000  1
  H  H43  1  0.05160000  0.69640000  0.53800000  1
  H  H44  1  0.08190000  0.73920000  0.52620000  1
  H  H45  1  0.32110000  0.78010000  0.52730000  1
  H  H46  1  0.11220000  0.73030000  0.42860000  1
  H  H47  1  0.12300000  0.76520000  0.39950000  1
  H  H48  1  0.02070000  0.76160000  0.42600000  1
  H  H49  1  0.49540000  0.97190000  0.52810000  1
  H  H50  1  0.76750000  0.96730000  0.84330000  1
  H  H51  1  0.59560000  0.06450000  0.83460000  1
  H  H52  1  0.68370000  0.97790000  0.64470000  1
  H  H53  1  0.85290000  0.06130000  0.72920000  1
  H  H54  1  0.89370000  0.06300000  0.66410000  1
  H  H55  1  0.64350000  0.93970000  0.71840000  1
  H  H56  1  0.55160000  0.96200000  0.69640000  1
  H  H57  1  0.58190000  0.97380000  0.73920000  1
  H  H58  1  0.82110000  0.97270000  0.78010000  1
  H  H59  1  0.61220000  0.07140000  0.73030000  1
  H  H60  1  0.62300000  0.10050000  0.76520000  1
  H  H61  1  0.52070000  0.07400000  0.76160000  1
  H  H62  1  0.99540000  0.97190000  0.97190000  1
  H  H63  1  0.26750000  0.65670000  0.96730000  1
  H  H64  1  0.09560000  0.66540000  0.06450000  1
  H  H65  1  0.18370000  0.85530000  0.97790000  1
  H  H66  1  0.35290000  0.77080000  0.06130000  1
  H  H67  1  0.39370000  0.83590000  0.06300000  1
  H  H68  1  0.14350000  0.78160000  0.93970000  1
  H  H69  1  0.05160000  0.80360000  0.96200000  1
  H  H70  1  0.08190000  0.76080000  0.97380000  1
  H  H71  1  0.32110000  0.71990000  0.97270000  1
  H  H72  1  0.11220000  0.76970000  0.07140000  1
  H  H73  1  0.12300000  0.73480000  0.10050000  1
  H  H74  1  0.02070000  0.73840000  0.07400000  1
  H  H75  1  0.49540000  0.52810000  0.97190000  1
  H  H76  1  0.73250000  0.03270000  0.34330000  1
  H  H77  1  0.90440000  0.93550000  0.33460000  1
  H  H78  1  0.81630000  0.02210000  0.14470000  1
  H  H79  1  0.64710000  0.93870000  0.22920000  1
  H  H80  1  0.60630000  0.93700000  0.16410000  1
  H  H81  1  0.85650000  0.06030000  0.21840000  1
  H  H82  1  0.94840000  0.03800000  0.19640000  1
  H  H83  1  0.91810000  0.02620000  0.23920000  1
  H  H84  1  0.67890000  0.02730000  0.28010000  1
  H  H85  1  0.88780000  0.92860000  0.23030000  1
  H  H86  1  0.87700000  0.89950000  0.26520000  1
  H  H87  1  0.97930000  0.92600000  0.26160000  1
  H  H88  1  0.50460000  0.02810000  0.47190000  1
  H  H89  1  0.23250000  0.15670000  0.03270000  1
  H  H90  1  0.40440000  0.16540000  0.93550000  1
  H  H91  1  0.31630000  0.35530000  0.02210000  1
  H  H92  1  0.14710000  0.27080000  0.93870000  1
  H  H93  1  0.10630000  0.33590000  0.93700000  1
  H  H94  1  0.35650000  0.28160000  0.06030000  1
  H  H95  1  0.44840000  0.30360000  0.03800000  1
  H  H96  1  0.41810000  0.26080000  0.02620000  1
  H  H97  1  0.17890000  0.21990000  0.02730000  1
  H  H98  1  0.38780000  0.26970000  0.92860000  1
  H  H99  1  0.37700000  0.23480000  0.89950000  1
  H  H100  1  0.47930000  0.23840000  0.92600000  1
  H  H101  1  0.00460000  0.02810000  0.02810000  1
  H  H102  1  0.73250000  0.46730000  0.15670000  1
  H  H103  1  0.90440000  0.56450000  0.16540000  1
  H  H104  1  0.81630000  0.47790000  0.35530000  1
  H  H105  1  0.64710000  0.56130000  0.27080000  1
  H  H106  1  0.60630000  0.56300000  0.33590000  1
  H  H107  1  0.85650000  0.43970000  0.28160000  1
  H  H108  1  0.94840000  0.46200000  0.30360000  1
  H  H109  1  0.91810000  0.47380000  0.26080000  1
  H  H110  1  0.67890000  0.47270000  0.21990000  1
  H  H111  1  0.88780000  0.57140000  0.26970000  1
  H  H112  1  0.87700000  0.60050000  0.23480000  1
  H  H113  1  0.97930000  0.57400000  0.23840000  1
  H  H114  1  0.50460000  0.47190000  0.02810000  1
  H  H115  1  0.23250000  0.34330000  0.46730000  1
  H  H116  1  0.40440000  0.33460000  0.56450000  1
  H  H117  1  0.31630000  0.14470000  0.47790000  1
  H  H118  1  0.14710000  0.22920000  0.56130000  1
  H  H119  1  0.10630000  0.16410000  0.56300000  1
  H  H120  1  0.35650000  0.21840000  0.43970000  1
  H  H121  1  0.44840000  0.19640000  0.46200000  1
  H  H122  1  0.41810000  0.23920000  0.47380000  1
  H  H123  1  0.17890000  0.28010000  0.47270000  1
  H  H124  1  0.38780000  0.23030000  0.57140000  1
  H  H125  1  0.37700000  0.26520000  0.60050000  1
  H  H126  1  0.47930000  0.26160000  0.57400000  1
  H  H127  1  0.00460000  0.47190000  0.47190000  1
  H  H128  1  0.23250000  0.46730000  0.34330000  1
  H  H129  1  0.40440000  0.56450000  0.33460000  1
  H  H130  1  0.31630000  0.47790000  0.14470000  1
  H  H131  1  0.14710000  0.56130000  0.22920000  1
  H  H132  1  0.10630000  0.56300000  0.16410000  1
  H  H133  1  0.35650000  0.43970000  0.21840000  1
  H  H134  1  0.44840000  0.46200000  0.19640000  1
  H  H135  1  0.41810000  0.47380000  0.23920000  1
  H  H136  1  0.17890000  0.47270000  0.28010000  1
  H  H137  1  0.38780000  0.57140000  0.23030000  1
  H  H138  1  0.37700000  0.60050000  0.26520000  1
  H  H139  1  0.47930000  0.57400000  0.26160000  1
  H  H140  1  0.73250000  0.15670000  0.46730000  1
  H  H141  1  0.90440000  0.16540000  0.56450000  1
  H  H142  1  0.81630000  0.35530000  0.47790000  1
  H  H143  1  0.64710000  0.27080000  0.56130000  1
  H  H144  1  0.60630000  0.33590000  0.56300000  1
  H  H145  1  0.85650000  0.28160000  0.43970000  1
  H  H146  1  0.94840000  0.30360000  0.46200000  1
  H  H147  1  0.91810000  0.26080000  0.47380000  1
  H  H148  1  0.67890000  0.21990000  0.47270000  1
  H  H149  1  0.88780000  0.26970000  0.57140000  1
  H  H150  1  0.87700000  0.23480000  0.60050000  1
  H  H151  1  0.97930000  0.23840000  0.57400000  1
  H  H152  1  0.23250000  0.03270000  0.15670000  1
  H  H153  1  0.40440000  0.93550000  0.16540000  1
  H  H154  1  0.31630000  0.02210000  0.35530000  1
  H  H155  1  0.14710000  0.93870000  0.27080000  1
  H  H156  1  0.10630000  0.93700000  0.33590000  1
  H  H157  1  0.35650000  0.06030000  0.28160000  1
  H  H158  1  0.44840000  0.03800000  0.30360000  1
  H  H159  1  0.41810000  0.02620000  0.26080000  1
  H  H160  1  0.17890000  0.02730000  0.21990000  1
  H  H161  1  0.38780000  0.92860000  0.26970000  1
  H  H162  1  0.37700000  0.89950000  0.23480000  1
  H  H163  1  0.47930000  0.92600000  0.23840000  1
  H  H164  1  0.73250000  0.34330000  0.03270000  1
  H  H165  1  0.90440000  0.33460000  0.93550000  1
  H  H166  1  0.81630000  0.14470000  0.02210000  1
  H  H167  1  0.64710000  0.22920000  0.93870000  1
  H  H168  1  0.60630000  0.16410000  0.93700000  1
  H  H169  1  0.85650000  0.21840000  0.06030000  1
  H  H170  1  0.94840000  0.19640000  0.03800000  1
  H  H171  1  0.91810000  0.23920000  0.02620000  1
  H  H172  1  0.67890000  0.28010000  0.02730000  1
  H  H173  1  0.88780000  0.23030000  0.92860000  1
  H  H174  1  0.87700000  0.26520000  0.89950000  1
  H  H175  1  0.97930000  0.26160000  0.92600000  1
  H  H176  1  0.26750000  0.96730000  0.65670000  1
  H  H177  1  0.09560000  0.06450000  0.66540000  1
  H  H178  1  0.18370000  0.97790000  0.85530000  1
  H  H179  1  0.35290000  0.06130000  0.77080000  1
  H  H180  1  0.39370000  0.06300000  0.83590000  1
  H  H181  1  0.14350000  0.93970000  0.78160000  1
  H  H182  1  0.05160000  0.96200000  0.80360000  1
  H  H183  1  0.08190000  0.97380000  0.76080000  1
  H  H184  1  0.32110000  0.97270000  0.71990000  1
  H  H185  1  0.11220000  0.07140000  0.76970000  1
  H  H186  1  0.12300000  0.10050000  0.73480000  1
  H  H187  1  0.02070000  0.07400000  0.73840000  1
  H  H188  1  0.76750000  0.84330000  0.96730000  1
  H  H189  1  0.59560000  0.83460000  0.06450000  1
  H  H190  1  0.68370000  0.64470000  0.97790000  1
  H  H191  1  0.85290000  0.72920000  0.06130000  1
  H  H192  1  0.89370000  0.66410000  0.06300000  1
  H  H193  1  0.64350000  0.71840000  0.93970000  1
  H  H194  1  0.55160000  0.69640000  0.96200000  1
  H  H195  1  0.58190000  0.73920000  0.97380000  1
  H  H196  1  0.82110000  0.78010000  0.97270000  1
  H  H197  1  0.61220000  0.73030000  0.07140000  1
  H  H198  1  0.62300000  0.76520000  0.10050000  1
  H  H199  1  0.52070000  0.76160000  0.07400000  1
  H  H200  1  0.26750000  0.53270000  0.84330000  1
  H  H201  1  0.09560000  0.43550000  0.83460000  1
  H  H202  1  0.18370000  0.52210000  0.64470000  1
  H  H203  1  0.35290000  0.43870000  0.72920000  1
  H  H204  1  0.39370000  0.43700000  0.66410000  1
  H  H205  1  0.14350000  0.56030000  0.71840000  1
  H  H206  1  0.05160000  0.53800000  0.69640000  1
  H  H207  1  0.08190000  0.52620000  0.73920000  1
  H  H208  1  0.32110000  0.52730000  0.78010000  1
  H  H209  1  0.11220000  0.42860000  0.73030000  1
  H  H210  1  0.12300000  0.39950000  0.76520000  1
  H  H211  1  0.02070000  0.42600000  0.76160000  1
  H  H212  1  0.76750000  0.65670000  0.53270000  1
  H  H213  1  0.59560000  0.66540000  0.43550000  1
  H  H214  1  0.68370000  0.85530000  0.52210000  1
  H  H215  1  0.85290000  0.77080000  0.43870000  1
  H  H216  1  0.89370000  0.83590000  0.43700000  1
  H  H217  1  0.64350000  0.78160000  0.56030000  1
  H  H218  1  0.55160000  0.80360000  0.53800000  1
  H  H219  1  0.58190000  0.76080000  0.52620000  1
  H  H220  1  0.82110000  0.71990000  0.52730000  1
  H  H221  1  0.61220000  0.76970000  0.42860000  1
  H  H222  1  0.62300000  0.73480000  0.39950000  1
  H  H223  1  0.52070000  0.73840000  0.42600000  1
  C  C224  1  0.65450000  0.48487000  0.61329000  1
  C  C225  1  0.67820000  0.48432000  0.65485000  1
  C  C226  1  0.73970000  0.51254000  0.67173000  1
  C  C227  1  0.71980000  0.48172000  0.73270000  1
  C  C228  1  0.63760000  0.45482000  0.67692000  1
  C  C229  1  0.65840000  0.45351000  0.71583000  1
  C  C230  1  0.82150000  0.47719000  0.89330000  1
  C  C231  1  0.79260000  0.47938000  0.85172000  1
  C  C232  1  0.71800000  0.50514000  0.83818000  1
  C  C233  1  0.69370000  0.50615000  0.79951000  1
  C  C234  1  0.74400000  0.48139000  0.77440000  1
  C  C235  1  0.81850000  0.45563000  0.78797000  1
  C  C236  1  0.84280000  0.45461000  0.82663000  1
  C  C237  1  0.60960000  0.53540000  0.78530000  1
  C  C238  1  0.76970000  0.51050000  0.70960000  1
  C  C239  1  0.59710000  0.42460000  0.74260000  1
  C  C240  1  0.85350000  0.50731000  0.50731000  1
  C  C241  1  0.96690000  0.51034000  0.51034000  1
  C  C242  1  0.15450000  0.88671000  0.48487000  1
  C  C243  1  0.17820000  0.84515000  0.48432000  1
  C  C244  1  0.23970000  0.82827000  0.51254000  1
  C  C245  1  0.21980000  0.76730000  0.48172000  1
  C  C246  1  0.13760000  0.82308000  0.45482000  1
  C  C247  1  0.15840000  0.78417000  0.45351000  1
  C  C248  1  0.32150000  0.60670000  0.47719000  1
  C  C249  1  0.29260000  0.64828000  0.47938000  1
  C  C250  1  0.21800000  0.66182000  0.50514000  1
  C  C251  1  0.19370000  0.70049000  0.50615000  1
  C  C252  1  0.24400000  0.72560000  0.48139000  1
  C  C253  1  0.31850000  0.71203000  0.45563000  1
  C  C254  1  0.34280000  0.67337000  0.45461000  1
  C  C255  1  0.10960000  0.71470000  0.53540000  1
  C  C256  1  0.26970000  0.79040000  0.51050000  1
  C  C257  1  0.09710000  0.75740000  0.42460000  1
  C  C258  1  0.35350000  0.99269000  0.50731000  1
  C  C259  1  0.46690000  0.98966000  0.51034000  1
  C  C260  1  0.65450000  0.01513000  0.88671000  1
  C  C261  1  0.67820000  0.01568000  0.84515000  1
  C  C262  1  0.73970000  0.98746000  0.82827000  1
  C  C263  1  0.71980000  0.01828000  0.76730000  1
  C  C264  1  0.63760000  0.04518000  0.82308000  1
  C  C265  1  0.65840000  0.04649000  0.78417000  1
  C  C266  1  0.82150000  0.02281000  0.60670000  1
  C  C267  1  0.79260000  0.02062000  0.64828000  1
  C  C268  1  0.71800000  0.99486000  0.66182000  1
  C  C269  1  0.69370000  0.99385000  0.70049000  1
  C  C270  1  0.74400000  0.01861000  0.72560000  1
  C  C271  1  0.81850000  0.04437000  0.71203000  1
  C  C272  1  0.84280000  0.04539000  0.67337000  1
  C  C273  1  0.60960000  0.96460000  0.71470000  1
  C  C274  1  0.76970000  0.98950000  0.79040000  1
  C  C275  1  0.59710000  0.07540000  0.75740000  1
  C  C276  1  0.85350000  0.99269000  0.99269000  1
  C  C277  1  0.96690000  0.98966000  0.98966000  1
  C  C278  1  0.15450000  0.61329000  0.01513000  1
  C  C279  1  0.17820000  0.65485000  0.01568000  1
  C  C280  1  0.23970000  0.67173000  0.98746000  1
  C  C281  1  0.21980000  0.73270000  0.01828000  1
  C  C282  1  0.13760000  0.67692000  0.04518000  1
  C  C283  1  0.15840000  0.71583000  0.04649000  1
  C  C284  1  0.32150000  0.89330000  0.02281000  1
  C  C285  1  0.29260000  0.85172000  0.02062000  1
  C  C286  1  0.21800000  0.83818000  0.99486000  1
  C  C287  1  0.19370000  0.79951000  0.99385000  1
  C  C288  1  0.24400000  0.77440000  0.01861000  1
  C  C289  1  0.31850000  0.78797000  0.04437000  1
  C  C290  1  0.34280000  0.82663000  0.04539000  1
  C  C291  1  0.10960000  0.78530000  0.96460000  1
  C  C292  1  0.26970000  0.70960000  0.98950000  1
  C  C293  1  0.09710000  0.74260000  0.07540000  1
  C  C294  1  0.35350000  0.50731000  0.99269000  1
  C  C295  1  0.46690000  0.51034000  0.98966000  1
  C  C296  1  0.84550000  0.98487000  0.38671000  1
  C  C297  1  0.82180000  0.98432000  0.34515000  1
  C  C298  1  0.76030000  0.01254000  0.32827000  1
  C  C299  1  0.78020000  0.98172000  0.26730000  1
  C  C300  1  0.86240000  0.95482000  0.32308000  1
  C  C301  1  0.84160000  0.95351000  0.28417000  1
  C  C302  1  0.67850000  0.97719000  0.10670000  1
  C  C303  1  0.70740000  0.97938000  0.14828000  1
  C  C304  1  0.78200000  0.00514000  0.16182000  1
  C  C305  1  0.80630000  0.00615000  0.20049000  1
  C  C306  1  0.75600000  0.98139000  0.22560000  1
  C  C307  1  0.68150000  0.95563000  0.21203000  1
  C  C308  1  0.65720000  0.95461000  0.17337000  1
  C  C309  1  0.89040000  0.03540000  0.21470000  1
  C  C310  1  0.73030000  0.01050000  0.29040000  1
  C  C311  1  0.90290000  0.92460000  0.25740000  1
  C  C312  1  0.64650000  0.00731000  0.49269000  1
  C  C313  1  0.53310000  0.01034000  0.48966000  1
  C  C314  1  0.34550000  0.11329000  0.98487000  1
  C  C315  1  0.32180000  0.15485000  0.98432000  1
  C  C316  1  0.26030000  0.17173000  0.01254000  1
  C  C317  1  0.28020000  0.23270000  0.98172000  1
  C  C318  1  0.36240000  0.17692000  0.95482000  1
  C  C319  1  0.34160000  0.21583000  0.95351000  1
  C  C320  1  0.17850000  0.39330000  0.97719000  1
  C  C321  1  0.20740000  0.35172000  0.97938000  1
  C  C322  1  0.28200000  0.33818000  0.00514000  1
  C  C323  1  0.30630000  0.29951000  0.00615000  1
  C  C324  1  0.25600000  0.27440000  0.98139000  1
  C  C325  1  0.18150000  0.28797000  0.95563000  1
  C  C326  1  0.15720000  0.32663000  0.95461000  1
  C  C327  1  0.39040000  0.28530000  0.03540000  1
  C  C328  1  0.23030000  0.20960000  0.01050000  1
  C  C329  1  0.40290000  0.24260000  0.92460000  1
  C  C330  1  0.14650000  0.00731000  0.00731000  1
  C  C331  1  0.03310000  0.01034000  0.01034000  1
  C  C332  1  0.84550000  0.51513000  0.11329000  1
  C  C333  1  0.82180000  0.51568000  0.15485000  1
  C  C334  1  0.76030000  0.48746000  0.17173000  1
  C  C335  1  0.78020000  0.51828000  0.23270000  1
  C  C336  1  0.86240000  0.54518000  0.17692000  1
  C  C337  1  0.84160000  0.54649000  0.21583000  1
  C  C338  1  0.67850000  0.52281000  0.39330000  1
  C  C339  1  0.70740000  0.52062000  0.35172000  1
  C  C340  1  0.78200000  0.49486000  0.33818000  1
  C  C341  1  0.80630000  0.49385000  0.29951000  1
  C  C342  1  0.75600000  0.51861000  0.27440000  1
  C  C343  1  0.68150000  0.54437000  0.28797000  1
  C  C344  1  0.65720000  0.54539000  0.32663000  1
  C  C345  1  0.89040000  0.46460000  0.28530000  1
  C  C346  1  0.73030000  0.48950000  0.20960000  1
  C  C347  1  0.90290000  0.57540000  0.24260000  1
  C  C348  1  0.64650000  0.49269000  0.00731000  1
  C  C349  1  0.53310000  0.48966000  0.01034000  1
  C  C350  1  0.34550000  0.38671000  0.51513000  1
  C  C351  1  0.32180000  0.34515000  0.51568000  1
  C  C352  1  0.26030000  0.32827000  0.48746000  1
  C  C353  1  0.28020000  0.26730000  0.51828000  1
  C  C354  1  0.36240000  0.32308000  0.54518000  1
  C  C355  1  0.34160000  0.28417000  0.54649000  1
  C  C356  1  0.17850000  0.10670000  0.52281000  1
  C  C357  1  0.20740000  0.14828000  0.52062000  1
  C  C358  1  0.28200000  0.16182000  0.49486000  1
  C  C359  1  0.30630000  0.20049000  0.49385000  1
  C  C360  1  0.25600000  0.22560000  0.51861000  1
  C  C361  1  0.18150000  0.21203000  0.54437000  1
  C  C362  1  0.15720000  0.17337000  0.54539000  1
  C  C363  1  0.39040000  0.21470000  0.46460000  1
  C  C364  1  0.23030000  0.29040000  0.48950000  1
  C  C365  1  0.40290000  0.25740000  0.57540000  1
  C  C366  1  0.14650000  0.49269000  0.49269000  1
  C  C367  1  0.03310000  0.48966000  0.48966000  1
  C  C368  1  0.34550000  0.51513000  0.38671000  1
  C  C369  1  0.32180000  0.51568000  0.34515000  1
  C  C370  1  0.26030000  0.48746000  0.32827000  1
  C  C371  1  0.28020000  0.51828000  0.26730000  1
  C  C372  1  0.36240000  0.54518000  0.32308000  1
  C  C373  1  0.34160000  0.54649000  0.28417000  1
  C  C374  1  0.17850000  0.52281000  0.10670000  1
  C  C375  1  0.20740000  0.52062000  0.14828000  1
  C  C376  1  0.28200000  0.49486000  0.16182000  1
  C  C377  1  0.30630000  0.49385000  0.20049000  1
  C  C378  1  0.25600000  0.51861000  0.22560000  1
  C  C379  1  0.18150000  0.54437000  0.21203000  1
  C  C380  1  0.15720000  0.54539000  0.17337000  1
  C  C381  1  0.39040000  0.46460000  0.21470000  1
  C  C382  1  0.23030000  0.48950000  0.29040000  1
  C  C383  1  0.40290000  0.57540000  0.25740000  1
  C  C384  1  0.84550000  0.11329000  0.51513000  1
  C  C385  1  0.82180000  0.15485000  0.51568000  1
  C  C386  1  0.76030000  0.17173000  0.48746000  1
  C  C387  1  0.78020000  0.23270000  0.51828000  1
  C  C388  1  0.86240000  0.17692000  0.54518000  1
  C  C389  1  0.84160000  0.21583000  0.54649000  1
  C  C390  1  0.67850000  0.39330000  0.52281000  1
  C  C391  1  0.70740000  0.35172000  0.52062000  1
  C  C392  1  0.78200000  0.33818000  0.49486000  1
  C  C393  1  0.80630000  0.29951000  0.49385000  1
  C  C394  1  0.75600000  0.27440000  0.51861000  1
  C  C395  1  0.68150000  0.28797000  0.54437000  1
  C  C396  1  0.65720000  0.32663000  0.54539000  1
  C  C397  1  0.89040000  0.28530000  0.46460000  1
  C  C398  1  0.73030000  0.20960000  0.48950000  1
  C  C399  1  0.90290000  0.24260000  0.57540000  1
  C  C400  1  0.34550000  0.98487000  0.11329000  1
  C  C401  1  0.32180000  0.98432000  0.15485000  1
  C  C402  1  0.26030000  0.01254000  0.17173000  1
  C  C403  1  0.28020000  0.98172000  0.23270000  1
  C  C404  1  0.36240000  0.95482000  0.17692000  1
  C  C405  1  0.34160000  0.95351000  0.21583000  1
  C  C406  1  0.17850000  0.97719000  0.39330000  1
  C  C407  1  0.20740000  0.97938000  0.35172000  1
  C  C408  1  0.28200000  0.00514000  0.33818000  1
  C  C409  1  0.30630000  0.00615000  0.29951000  1
  C  C410  1  0.25600000  0.98139000  0.27440000  1
  C  C411  1  0.18150000  0.95563000  0.28797000  1
  C  C412  1  0.15720000  0.95461000  0.32663000  1
  C  C413  1  0.39040000  0.03540000  0.28530000  1
  C  C414  1  0.23030000  0.01050000  0.20960000  1
  C  C415  1  0.40290000  0.92460000  0.24260000  1
  C  C416  1  0.84550000  0.38671000  0.98487000  1
  C  C417  1  0.82180000  0.34515000  0.98432000  1
  C  C418  1  0.76030000  0.32827000  0.01254000  1
  C  C419  1  0.78020000  0.26730000  0.98172000  1
  C  C420  1  0.86240000  0.32308000  0.95482000  1
  C  C421  1  0.84160000  0.28417000  0.95351000  1
  C  C422  1  0.67850000  0.10670000  0.97719000  1
  C  C423  1  0.70740000  0.14828000  0.97938000  1
  C  C424  1  0.78200000  0.16182000  0.00514000  1
  C  C425  1  0.80630000  0.20049000  0.00615000  1
  C  C426  1  0.75600000  0.22560000  0.98139000  1
  C  C427  1  0.68150000  0.21203000  0.95563000  1
  C  C428  1  0.65720000  0.17337000  0.95461000  1
  C  C429  1  0.89040000  0.21470000  0.03540000  1
  C  C430  1  0.73030000  0.29040000  0.01050000  1
  C  C431  1  0.90290000  0.25740000  0.92460000  1
  C  C432  1  0.15450000  0.01513000  0.61329000  1
  C  C433  1  0.17820000  0.01568000  0.65485000  1
  C  C434  1  0.23970000  0.98746000  0.67173000  1
  C  C435  1  0.21980000  0.01828000  0.73270000  1
  C  C436  1  0.13760000  0.04518000  0.67692000  1
  C  C437  1  0.15840000  0.04649000  0.71583000  1
  C  C438  1  0.32150000  0.02281000  0.89330000  1
  C  C439  1  0.29260000  0.02062000  0.85172000  1
  C  C440  1  0.21800000  0.99486000  0.83818000  1
  C  C441  1  0.19370000  0.99385000  0.79951000  1
  C  C442  1  0.24400000  0.01861000  0.77440000  1
  C  C443  1  0.31850000  0.04437000  0.78797000  1
  C  C444  1  0.34280000  0.04539000  0.82663000  1
  C  C445  1  0.10960000  0.96460000  0.78530000  1
  C  C446  1  0.26970000  0.98950000  0.70960000  1
  C  C447  1  0.09710000  0.07540000  0.74260000  1
  C  C448  1  0.65450000  0.88671000  0.01513000  1
  C  C449  1  0.67820000  0.84515000  0.01568000  1
  C  C450  1  0.73970000  0.82827000  0.98746000  1
  C  C451  1  0.71980000  0.76730000  0.01828000  1
  C  C452  1  0.63760000  0.82308000  0.04518000  1
  C  C453  1  0.65840000  0.78417000  0.04649000  1
  C  C454  1  0.82150000  0.60670000  0.02281000  1
  C  C455  1  0.79260000  0.64828000  0.02062000  1
  C  C456  1  0.71800000  0.66182000  0.99486000  1
  C  C457  1  0.69370000  0.70049000  0.99385000  1
  C  C458  1  0.74400000  0.72560000  0.01861000  1
  C  C459  1  0.81850000  0.71203000  0.04437000  1
  C  C460  1  0.84280000  0.67337000  0.04539000  1
  C  C461  1  0.60960000  0.71470000  0.96460000  1
  C  C462  1  0.76970000  0.79040000  0.98950000  1
  C  C463  1  0.59710000  0.75740000  0.07540000  1
  C  C464  1  0.15450000  0.48487000  0.88671000  1
  C  C465  1  0.17820000  0.48432000  0.84515000  1
  C  C466  1  0.23970000  0.51254000  0.82827000  1
  C  C467  1  0.21980000  0.48172000  0.76730000  1
  C  C468  1  0.13760000  0.45482000  0.82308000  1
  C  C469  1  0.15840000  0.45351000  0.78417000  1
  C  C470  1  0.32150000  0.47719000  0.60670000  1
  C  C471  1  0.29260000  0.47938000  0.64828000  1
  C  C472  1  0.21800000  0.50514000  0.66182000  1
  C  C473  1  0.19370000  0.50615000  0.70049000  1
  C  C474  1  0.24400000  0.48139000  0.72560000  1
  C  C475  1  0.31850000  0.45563000  0.71203000  1
  C  C476  1  0.34280000  0.45461000  0.67337000  1
  C  C477  1  0.10960000  0.53540000  0.71470000  1
  C  C478  1  0.26970000  0.51050000  0.79040000  1
  C  C479  1  0.09710000  0.42460000  0.75740000  1
  C  C480  1  0.65450000  0.61329000  0.48487000  1
  C  C481  1  0.67820000  0.65485000  0.48432000  1
  C  C482  1  0.73970000  0.67173000  0.51254000  1
  C  C483  1  0.71980000  0.73270000  0.48172000  1
  C  C484  1  0.63760000  0.67692000  0.45482000  1
  C  C485  1  0.65840000  0.71583000  0.45351000  1
  C  C486  1  0.82150000  0.89330000  0.47719000  1
  C  C487  1  0.79260000  0.85172000  0.47938000  1
  C  C488  1  0.71800000  0.83818000  0.50514000  1
  C  C489  1  0.69370000  0.79951000  0.50615000  1
  C  C490  1  0.74400000  0.77440000  0.48139000  1
  C  C491  1  0.81850000  0.78797000  0.45563000  1
  C  C492  1  0.84280000  0.82663000  0.45461000  1
  C  C493  1  0.60960000  0.78530000  0.53540000  1
  C  C494  1  0.76970000  0.70960000  0.51050000  1
  C  C495  1  0.59710000  0.74260000  0.42460000  1
  O  O496  1  0.68150000  0.51366000  0.59450000  1
  O  O497  1  0.59640000  0.45753000  0.60091000  1
  O  O498  1  0.78720000  0.50549000  0.91408000  1
  O  O499  1  0.88800000  0.45319000  0.90332000  1
  O  O500  1  0.63380000  0.52721000  0.47840000  1
  O  O501  1  0.51190000  0.43891000  0.48785000  1
  O  O502  1  0.79910000  0.52885000  0.52885000  1
  O  O503  1  0.81330000  0.48391000  0.48391000  1
  O  O504  1  0.18150000  0.90550000  0.51366000  1
  O  O505  1  0.09640000  0.89909000  0.45753000  1
  O  O506  1  0.28720000  0.58592000  0.50549000  1
  O  O507  1  0.38800000  0.59668000  0.45319000  1
  O  O508  1  0.13380000  0.02160000  0.52721000  1
  O  O509  1  0.01190000  0.01215000  0.43891000  1
  O  O510  1  0.29910000  0.97115000  0.52885000  1
  O  O511  1  0.31330000  0.01609000  0.48391000  1
  O  O512  1  0.68150000  0.98634000  0.90550000  1
  O  O513  1  0.59640000  0.04247000  0.89909000  1
  O  O514  1  0.78720000  0.99451000  0.58592000  1
  O  O515  1  0.88800000  0.04681000  0.59668000  1
  O  O516  1  0.63380000  0.97279000  0.02160000  1
  O  O517  1  0.51190000  0.06109000  0.01215000  1
  O  O518  1  0.79910000  0.97115000  0.97115000  1
  O  O519  1  0.81330000  0.01609000  0.01609000  1
  O  O520  1  0.18150000  0.59450000  0.98634000  1
  O  O521  1  0.09640000  0.60091000  0.04247000  1
  O  O522  1  0.28720000  0.91408000  0.99451000  1
  O  O523  1  0.38800000  0.90332000  0.04681000  1
  O  O524  1  0.13380000  0.47840000  0.97279000  1
  O  O525  1  0.01190000  0.48785000  0.06109000  1
  O  O526  1  0.29910000  0.52885000  0.97115000  1
  O  O527  1  0.31330000  0.48391000  0.01609000  1
  O  O528  1  0.81850000  0.01366000  0.40550000  1
  O  O529  1  0.90360000  0.95753000  0.39909000  1
  O  O530  1  0.71280000  0.00549000  0.08592000  1
  O  O531  1  0.61200000  0.95319000  0.09668000  1
  O  O532  1  0.86620000  0.02721000  0.52160000  1
  O  O533  1  0.98810000  0.93891000  0.51215000  1
  O  O534  1  0.70090000  0.02885000  0.47115000  1
  O  O535  1  0.68670000  0.98391000  0.51609000  1
  O  O536  1  0.31850000  0.09450000  0.01366000  1
  O  O537  1  0.40360000  0.10091000  0.95753000  1
  O  O538  1  0.21280000  0.41408000  0.00549000  1
  O  O539  1  0.11200000  0.40332000  0.95319000  1
  O  O540  1  0.36620000  0.97840000  0.02721000  1
  O  O541  1  0.48810000  0.98785000  0.93891000  1
  O  O542  1  0.20090000  0.02885000  0.02885000  1
  O  O543  1  0.18670000  0.98391000  0.98391000  1
  O  O544  1  0.81850000  0.48634000  0.09450000  1
  O  O545  1  0.90360000  0.54247000  0.10091000  1
  O  O546  1  0.71280000  0.49451000  0.41408000  1
  O  O547  1  0.61200000  0.54681000  0.40332000  1
  O  O548  1  0.86620000  0.47279000  0.97840000  1
  O  O549  1  0.98810000  0.56109000  0.98785000  1
  O  O550  1  0.70090000  0.47115000  0.02885000  1
  O  O551  1  0.68670000  0.51609000  0.98391000  1
  O  O552  1  0.31850000  0.40550000  0.48634000  1
  O  O553  1  0.40360000  0.39909000  0.54247000  1
  O  O554  1  0.21280000  0.08592000  0.49451000  1
  O  O555  1  0.11200000  0.09668000  0.54681000  1
  O  O556  1  0.36620000  0.52160000  0.47279000  1
  O  O557  1  0.48810000  0.51215000  0.56109000  1
  O  O558  1  0.20090000  0.47115000  0.47115000  1
  O  O559  1  0.18670000  0.51609000  0.51609000  1
  O  O560  1  0.31850000  0.48634000  0.40550000  1
  O  O561  1  0.40360000  0.54247000  0.39909000  1
  O  O562  1  0.21280000  0.49451000  0.08592000  1
  O  O563  1  0.11200000  0.54681000  0.09668000  1
  O  O564  1  0.36620000  0.47279000  0.52160000  1
  O  O565  1  0.48810000  0.56109000  0.51215000  1
  O  O566  1  0.81850000  0.09450000  0.48634000  1
  O  O567  1  0.90360000  0.10091000  0.54247000  1
  O  O568  1  0.71280000  0.41408000  0.49451000  1
  O  O569  1  0.61200000  0.40332000  0.54681000  1
  O  O570  1  0.86620000  0.97840000  0.47279000  1
  O  O571  1  0.98810000  0.98785000  0.56109000  1
  O  O572  1  0.31850000  0.01366000  0.09450000  1
  O  O573  1  0.40360000  0.95753000  0.10091000  1
  O  O574  1  0.21280000  0.00549000  0.41408000  1
  O  O575  1  0.11200000  0.95319000  0.40332000  1
  O  O576  1  0.36620000  0.02721000  0.97840000  1
  O  O577  1  0.48810000  0.93891000  0.98785000  1
  O  O578  1  0.81850000  0.40550000  0.01366000  1
  O  O579  1  0.90360000  0.39909000  0.95753000  1
  O  O580  1  0.71280000  0.08592000  0.00549000  1
  O  O581  1  0.61200000  0.09668000  0.95319000  1
  O  O582  1  0.86620000  0.52160000  0.02721000  1
  O  O583  1  0.98810000  0.51215000  0.93891000  1
  O  O584  1  0.18150000  0.98634000  0.59450000  1
  O  O585  1  0.09640000  0.04247000  0.60091000  1
  O  O586  1  0.28720000  0.99451000  0.91408000  1
  O  O587  1  0.38800000  0.04681000  0.90332000  1
  O  O588  1  0.13380000  0.97279000  0.47840000  1
  O  O589  1  0.01190000  0.06109000  0.48785000  1
  O  O590  1  0.68150000  0.90550000  0.98634000  1
  O  O591  1  0.59640000  0.89909000  0.04247000  1
  O  O592  1  0.78720000  0.58592000  0.99451000  1
  O  O593  1  0.88800000  0.59668000  0.04681000  1
  O  O594  1  0.63380000  0.02160000  0.97279000  1
  O  O595  1  0.51190000  0.01215000  0.06109000  1
  O  O596  1  0.18150000  0.51366000  0.90550000  1
  O  O597  1  0.09640000  0.45753000  0.89909000  1
  O  O598  1  0.28720000  0.50549000  0.58592000  1
  O  O599  1  0.38800000  0.45319000  0.59668000  1
  O  O600  1  0.13380000  0.52721000  0.02160000  1
  O  O601  1  0.01190000  0.43891000  0.01215000  1
  O  O602  1  0.68150000  0.59450000  0.51366000  1
  O  O603  1  0.59640000  0.60091000  0.45753000  1
  O  O604  1  0.78720000  0.91408000  0.50549000  1
  O  O605  1  0.88800000  0.90332000  0.45319000  1
  O  O606  1  0.63380000  0.47840000  0.52721000  1
  O  O607  1  0.51190000  0.48785000  0.43891000  1
