# generated using pymatgen
data_Zr3H20(C5O2)7
_symmetry_space_group_name_H-M   'P 1'
_cell_length_a   19.16000000
_cell_length_b   23.07000000
_cell_length_c   23.07500000
_cell_angle_alpha   90.00000000
_cell_angle_beta   90.00000000
_cell_angle_gamma   90.00000000
_symmetry_Int_Tables_number   1
_chemical_formula_structural   Zr3H20(C5O2)7
_chemical_formula_sum   'Zr12 H80 C140 O56'
_cell_volume   10199.63919000
_cell_formula_units_Z   4
loop_
 _symmetry_equiv_pos_site_id
 _symmetry_equiv_pos_as_xyz
  1  'x, y, z'
loop_
 _atom_site_type_symbol
 _atom_site_label
 _atom_site_symmetry_multiplicity
 _atom_site_fract_x
 _atom_site_fract_y
 _atom_site_fract_z
 _atom_site_occupancy
  Zr  Zr0  1  0.59281000  0.50000000  0.92371000  1
  Zr  Zr1  1  0.50000000  0.60867000  0.00000000  1
  Zr  Zr2  1  0.09281000  0.07629000  0.50000000  1
  Zr  Zr3  1  0.00000000  0.00000000  0.60867000  1
  Zr  Zr4  1  0.59281000  0.50000000  0.07629000  1
  Zr  Zr5  1  0.50000000  0.39133000  0.00000000  1
  Zr  Zr6  1  0.09281000  0.92371000  0.50000000  1
  Zr  Zr7  1  0.00000000  0.00000000  0.39133000  1
  Zr  Zr8  1  0.40719000  0.50000000  0.07629000  1
  Zr  Zr9  1  0.90719000  0.92371000  0.50000000  1
  Zr  Zr10  1  0.40719000  0.50000000  0.92371000  1
  Zr  Zr11  1  0.90719000  0.07629000  0.50000000  1
  H  H12  1  0.62380000  0.75570000  0.90700000  1
  H  H13  1  0.68340000  0.81920000  0.84540000  1
  H  H14  1  0.76850000  0.68230000  0.76100000  1
  H  H15  1  0.70890000  0.61870000  0.82250000  1
  H  H16  1  0.82710000  0.50000000  0.08780000  1
  H  H17  1  0.94920000  0.50000000  0.08780000  1
  H  H18  1  0.12380000  0.09300000  0.75570000  1
  H  H19  1  0.18340000  0.15460000  0.81920000  1
  H  H20  1  0.26850000  0.23900000  0.68230000  1
  H  H21  1  0.20890000  0.17750000  0.61870000  1
  H  H22  1  0.32710000  0.91220000  0.50000000  1
  H  H23  1  0.44920000  0.91220000  0.50000000  1
  H  H24  1  0.62380000  0.24430000  0.09300000  1
  H  H25  1  0.68340000  0.18080000  0.15460000  1
  H  H26  1  0.76850000  0.31770000  0.23900000  1
  H  H27  1  0.70890000  0.38130000  0.17750000  1
  H  H28  1  0.82710000  0.50000000  0.91220000  1
  H  H29  1  0.94920000  0.50000000  0.91220000  1
  H  H30  1  0.12380000  0.90700000  0.24430000  1
  H  H31  1  0.18340000  0.84540000  0.18080000  1
  H  H32  1  0.26850000  0.76100000  0.31770000  1
  H  H33  1  0.20890000  0.82250000  0.38130000  1
  H  H34  1  0.32710000  0.08780000  0.50000000  1
  H  H35  1  0.44920000  0.08780000  0.50000000  1
  H  H36  1  0.37620000  0.75570000  0.09300000  1
  H  H37  1  0.31660000  0.81920000  0.15460000  1
  H  H38  1  0.23150000  0.68230000  0.23900000  1
  H  H39  1  0.29110000  0.61870000  0.17750000  1
  H  H40  1  0.17290000  0.50000000  0.91220000  1
  H  H41  1  0.05080000  0.50000000  0.91220000  1
  H  H42  1  0.87620000  0.90700000  0.75570000  1
  H  H43  1  0.81660000  0.84540000  0.81920000  1
  H  H44  1  0.73150000  0.76100000  0.68230000  1
  H  H45  1  0.79110000  0.82250000  0.61870000  1
  H  H46  1  0.67290000  0.08780000  0.50000000  1
  H  H47  1  0.55080000  0.08780000  0.50000000  1
  H  H48  1  0.37620000  0.24430000  0.90700000  1
  H  H49  1  0.31660000  0.18080000  0.84540000  1
  H  H50  1  0.23150000  0.31770000  0.76100000  1
  H  H51  1  0.29110000  0.38130000  0.82250000  1
  H  H52  1  0.17290000  0.50000000  0.08780000  1
  H  H53  1  0.05080000  0.50000000  0.08780000  1
  H  H54  1  0.87620000  0.09300000  0.24430000  1
  H  H55  1  0.81660000  0.15460000  0.18080000  1
  H  H56  1  0.73150000  0.23900000  0.31770000  1
  H  H57  1  0.79110000  0.17750000  0.38130000  1
  H  H58  1  0.67290000  0.91220000  0.50000000  1
  H  H59  1  0.55080000  0.91220000  0.50000000  1
  H  H60  1  0.37620000  0.24430000  0.09300000  1
  H  H61  1  0.31660000  0.18080000  0.15460000  1
  H  H62  1  0.23150000  0.31770000  0.23900000  1
  H  H63  1  0.29110000  0.38130000  0.17750000  1
  H  H64  1  0.87620000  0.90700000  0.24430000  1
  H  H65  1  0.81660000  0.84540000  0.18080000  1
  H  H66  1  0.73150000  0.76100000  0.31770000  1
  H  H67  1  0.79110000  0.82250000  0.38130000  1
  H  H68  1  0.37620000  0.75570000  0.90700000  1
  H  H69  1  0.31660000  0.81920000  0.84540000  1
  H  H70  1  0.23150000  0.68230000  0.76100000  1
  H  H71  1  0.29110000  0.61870000  0.82250000  1
  H  H72  1  0.87620000  0.09300000  0.75570000  1
  H  H73  1  0.81660000  0.15460000  0.81920000  1
  H  H74  1  0.73150000  0.23900000  0.68230000  1
  H  H75  1  0.79110000  0.17750000  0.61870000  1
  H  H76  1  0.62380000  0.24430000  0.90700000  1
  H  H77  1  0.68340000  0.18080000  0.84540000  1
  H  H78  1  0.76850000  0.31770000  0.76100000  1
  H  H79  1  0.70890000  0.38130000  0.82250000  1
  H  H80  1  0.12380000  0.09300000  0.24430000  1
  H  H81  1  0.18340000  0.15460000  0.18080000  1
  H  H82  1  0.26850000  0.23900000  0.31770000  1
  H  H83  1  0.20890000  0.17750000  0.38130000  1
  H  H84  1  0.62380000  0.75570000  0.09300000  1
  H  H85  1  0.68340000  0.81920000  0.15460000  1
  H  H86  1  0.76850000  0.68230000  0.23900000  1
  H  H87  1  0.70890000  0.61870000  0.17750000  1
  H  H88  1  0.12380000  0.90700000  0.75570000  1
  H  H89  1  0.18340000  0.84540000  0.81920000  1
  H  H90  1  0.26850000  0.76100000  0.68230000  1
  H  H91  1  0.20890000  0.82250000  0.61870000  1
  C  C92  1  0.62900000  0.63210000  0.90600000  1
  C  C93  1  0.66060000  0.68120000  0.87070000  1
  C  C94  1  0.65310000  0.74080000  0.87740000  1
  C  C95  1  0.68860000  0.77850000  0.84080000  1
  C  C96  1  0.73160000  0.75670000  0.79740000  1
  C  C97  1  0.73910000  0.69720000  0.79060000  1
  C  C98  1  0.70370000  0.65940000  0.82720000  1
  C  C99  1  0.85190000  0.50000000  0.05211000  1
  C  C100  1  0.92440000  0.50000000  0.05213000  1
  C  C101  1  0.73680000  0.50000000  0.00000000  1
  C  C102  1  0.81550000  0.50000000  0.00000000  1
  C  C103  1  0.96080000  0.50000000  0.00000000  1
  C  C104  1  0.12900000  0.09400000  0.63210000  1
  C  C105  1  0.16060000  0.12930000  0.68120000  1
  C  C106  1  0.15310000  0.12260000  0.74080000  1
  C  C107  1  0.18860000  0.15920000  0.77850000  1
  C  C108  1  0.23160000  0.20260000  0.75670000  1
  C  C109  1  0.23910000  0.20940000  0.69720000  1
  C  C110  1  0.20370000  0.17280000  0.65940000  1
  C  C111  1  0.35190000  0.94789000  0.50000000  1
  C  C112  1  0.42440000  0.94787000  0.50000000  1
  C  C113  1  0.23680000  0.00000000  0.50000000  1
  C  C114  1  0.31550000  0.00000000  0.50000000  1
  C  C115  1  0.46080000  0.00000000  0.50000000  1
  C  C116  1  0.62900000  0.36790000  0.09400000  1
  C  C117  1  0.66060000  0.31880000  0.12930000  1
  C  C118  1  0.65310000  0.25920000  0.12260000  1
  C  C119  1  0.68860000  0.22150000  0.15920000  1
  C  C120  1  0.73160000  0.24330000  0.20260000  1
  C  C121  1  0.73910000  0.30280000  0.20940000  1
  C  C122  1  0.70370000  0.34060000  0.17280000  1
  C  C123  1  0.85190000  0.50000000  0.94789000  1
  C  C124  1  0.92440000  0.50000000  0.94787000  1
  C  C125  1  0.12900000  0.90600000  0.36790000  1
  C  C126  1  0.16060000  0.87070000  0.31880000  1
  C  C127  1  0.15310000  0.87740000  0.25920000  1
  C  C128  1  0.18860000  0.84080000  0.22150000  1
  C  C129  1  0.23160000  0.79740000  0.24330000  1
  C  C130  1  0.23910000  0.79060000  0.30280000  1
  C  C131  1  0.20370000  0.82720000  0.34060000  1
  C  C132  1  0.35190000  0.05211000  0.50000000  1
  C  C133  1  0.42440000  0.05213000  0.50000000  1
  C  C134  1  0.37100000  0.63210000  0.09400000  1
  C  C135  1  0.33940000  0.68120000  0.12930000  1
  C  C136  1  0.34690000  0.74080000  0.12260000  1
  C  C137  1  0.31140000  0.77850000  0.15920000  1
  C  C138  1  0.26840000  0.75670000  0.20260000  1
  C  C139  1  0.26090000  0.69720000  0.20940000  1
  C  C140  1  0.29630000  0.65940000  0.17280000  1
  C  C141  1  0.14810000  0.50000000  0.94789000  1
  C  C142  1  0.07560000  0.50000000  0.94787000  1
  C  C143  1  0.26320000  0.50000000  0.00000000  1
  C  C144  1  0.18450000  0.50000000  0.00000000  1
  C  C145  1  0.03920000  0.50000000  0.00000000  1
  C  C146  1  0.87100000  0.90600000  0.63210000  1
  C  C147  1  0.83940000  0.87070000  0.68120000  1
  C  C148  1  0.84690000  0.87740000  0.74080000  1
  C  C149  1  0.81140000  0.84080000  0.77850000  1
  C  C150  1  0.76840000  0.79740000  0.75670000  1
  C  C151  1  0.76090000  0.79060000  0.69720000  1
  C  C152  1  0.79630000  0.82720000  0.65940000  1
  C  C153  1  0.64810000  0.05211000  0.50000000  1
  C  C154  1  0.57560000  0.05213000  0.50000000  1
  C  C155  1  0.76320000  0.00000000  0.50000000  1
  C  C156  1  0.68450000  0.00000000  0.50000000  1
  C  C157  1  0.53920000  0.00000000  0.50000000  1
  C  C158  1  0.37100000  0.36790000  0.90600000  1
  C  C159  1  0.33940000  0.31880000  0.87070000  1
  C  C160  1  0.34690000  0.25920000  0.87740000  1
  C  C161  1  0.31140000  0.22150000  0.84080000  1
  C  C162  1  0.26840000  0.24330000  0.79740000  1
  C  C163  1  0.26090000  0.30280000  0.79060000  1
  C  C164  1  0.29630000  0.34060000  0.82720000  1
  C  C165  1  0.14810000  0.50000000  0.05211000  1
  C  C166  1  0.07560000  0.50000000  0.05213000  1
  C  C167  1  0.87100000  0.09400000  0.36790000  1
  C  C168  1  0.83940000  0.12930000  0.31880000  1
  C  C169  1  0.84690000  0.12260000  0.25920000  1
  C  C170  1  0.81140000  0.15920000  0.22150000  1
  C  C171  1  0.76840000  0.20260000  0.24330000  1
  C  C172  1  0.76090000  0.20940000  0.30280000  1
  C  C173  1  0.79630000  0.17280000  0.34060000  1
  C  C174  1  0.64810000  0.94789000  0.50000000  1
  C  C175  1  0.57560000  0.94787000  0.50000000  1
  C  C176  1  0.37100000  0.36790000  0.09400000  1
  C  C177  1  0.33940000  0.31880000  0.12930000  1
  C  C178  1  0.34690000  0.25920000  0.12260000  1
  C  C179  1  0.31140000  0.22150000  0.15920000  1
  C  C180  1  0.26840000  0.24330000  0.20260000  1
  C  C181  1  0.26090000  0.30280000  0.20940000  1
  C  C182  1  0.29630000  0.34060000  0.17280000  1
  C  C183  1  0.87100000  0.90600000  0.36790000  1
  C  C184  1  0.83940000  0.87070000  0.31880000  1
  C  C185  1  0.84690000  0.87740000  0.25920000  1
  C  C186  1  0.81140000  0.84080000  0.22150000  1
  C  C187  1  0.76840000  0.79740000  0.24330000  1
  C  C188  1  0.76090000  0.79060000  0.30280000  1
  C  C189  1  0.79630000  0.82720000  0.34060000  1
  C  C190  1  0.37100000  0.63210000  0.90600000  1
  C  C191  1  0.33940000  0.68120000  0.87070000  1
  C  C192  1  0.34690000  0.74080000  0.87740000  1
  C  C193  1  0.31140000  0.77850000  0.84080000  1
  C  C194  1  0.26840000  0.75670000  0.79740000  1
  C  C195  1  0.26090000  0.69720000  0.79060000  1
  C  C196  1  0.29630000  0.65940000  0.82720000  1
  C  C197  1  0.87100000  0.09400000  0.63210000  1
  C  C198  1  0.83940000  0.12930000  0.68120000  1
  C  C199  1  0.84690000  0.12260000  0.74080000  1
  C  C200  1  0.81140000  0.15920000  0.77850000  1
  C  C201  1  0.76840000  0.20260000  0.75670000  1
  C  C202  1  0.76090000  0.20940000  0.69720000  1
  C  C203  1  0.79630000  0.17280000  0.65940000  1
  C  C204  1  0.62900000  0.36790000  0.90600000  1
  C  C205  1  0.66060000  0.31880000  0.87070000  1
  C  C206  1  0.65310000  0.25920000  0.87740000  1
  C  C207  1  0.68860000  0.22150000  0.84080000  1
  C  C208  1  0.73160000  0.24330000  0.79740000  1
  C  C209  1  0.73910000  0.30280000  0.79060000  1
  C  C210  1  0.70370000  0.34060000  0.82720000  1
  C  C211  1  0.12900000  0.09400000  0.36790000  1
  C  C212  1  0.16060000  0.12930000  0.31880000  1
  C  C213  1  0.15310000  0.12260000  0.25920000  1
  C  C214  1  0.18860000  0.15920000  0.22150000  1
  C  C215  1  0.23160000  0.20260000  0.24330000  1
  C  C216  1  0.23910000  0.20940000  0.30280000  1
  C  C217  1  0.20370000  0.17280000  0.34060000  1
  C  C218  1  0.62900000  0.63210000  0.09400000  1
  C  C219  1  0.66060000  0.68120000  0.12930000  1
  C  C220  1  0.65310000  0.74080000  0.12260000  1
  C  C221  1  0.68860000  0.77850000  0.15920000  1
  C  C222  1  0.73160000  0.75670000  0.20260000  1
  C  C223  1  0.73910000  0.69720000  0.20940000  1
  C  C224  1  0.70370000  0.65940000  0.17280000  1
  C  C225  1  0.12900000  0.90600000  0.63210000  1
  C  C226  1  0.16060000  0.87070000  0.68120000  1
  C  C227  1  0.15310000  0.87740000  0.74080000  1
  C  C228  1  0.18860000  0.84080000  0.77850000  1
  C  C229  1  0.23160000  0.79740000  0.75670000  1
  C  C230  1  0.23910000  0.79060000  0.69720000  1
  C  C231  1  0.20370000  0.82720000  0.65940000  1
  O  O232  1  0.63260000  0.58270000  0.89090000  1
  O  O233  1  0.57340000  0.65880000  0.94130000  1
  O  O234  1  0.70370000  0.50000000  0.95020000  1
  O  O235  1  0.59310000  0.55620000  0.00000000  1
  O  O236  1  0.50000000  0.55140000  0.91830000  1
  O  O237  1  0.13260000  0.10910000  0.58270000  1
  O  O238  1  0.07340000  0.05870000  0.65880000  1
  O  O239  1  0.20370000  0.04980000  0.50000000  1
  O  O240  1  0.09310000  0.00000000  0.55620000  1
  O  O241  1  0.00000000  0.08170000  0.55140000  1
  O  O242  1  0.63260000  0.41730000  0.10910000  1
  O  O243  1  0.57340000  0.34120000  0.05870000  1
  O  O244  1  0.70370000  0.50000000  0.04980000  1
  O  O245  1  0.59310000  0.44380000  0.00000000  1
  O  O246  1  0.50000000  0.44860000  0.08170000  1
  O  O247  1  0.13260000  0.89090000  0.41730000  1
  O  O248  1  0.07340000  0.94130000  0.34120000  1
  O  O249  1  0.20370000  0.95020000  0.50000000  1
  O  O250  1  0.09310000  0.00000000  0.44380000  1
  O  O251  1  0.00000000  0.91830000  0.44860000  1
  O  O252  1  0.36740000  0.58270000  0.10910000  1
  O  O253  1  0.42660000  0.65880000  0.05870000  1
  O  O254  1  0.29630000  0.50000000  0.04980000  1
  O  O255  1  0.40690000  0.55620000  0.00000000  1
  O  O256  1  0.50000000  0.55140000  0.08170000  1
  O  O257  1  0.86740000  0.89090000  0.58270000  1
  O  O258  1  0.92660000  0.94130000  0.65880000  1
  O  O259  1  0.79630000  0.95020000  0.50000000  1
  O  O260  1  0.90690000  0.00000000  0.55620000  1
  O  O261  1  0.00000000  0.91830000  0.55140000  1
  O  O262  1  0.36740000  0.41730000  0.89090000  1
  O  O263  1  0.42660000  0.34120000  0.94130000  1
  O  O264  1  0.29630000  0.50000000  0.95020000  1
  O  O265  1  0.40690000  0.44380000  0.00000000  1
  O  O266  1  0.50000000  0.44860000  0.91830000  1
  O  O267  1  0.86740000  0.10910000  0.41730000  1
  O  O268  1  0.92660000  0.05870000  0.34120000  1
  O  O269  1  0.79630000  0.04980000  0.50000000  1
  O  O270  1  0.90690000  0.00000000  0.44380000  1
  O  O271  1  0.00000000  0.08170000  0.44860000  1
  O  O272  1  0.36740000  0.41730000  0.10910000  1
  O  O273  1  0.42660000  0.34120000  0.05870000  1
  O  O274  1  0.86740000  0.89090000  0.41730000  1
  O  O275  1  0.92660000  0.94130000  0.34120000  1
  O  O276  1  0.36740000  0.58270000  0.89090000  1
  O  O277  1  0.42660000  0.65880000  0.94130000  1
  O  O278  1  0.86740000  0.10910000  0.58270000  1
  O  O279  1  0.92660000  0.05870000  0.65880000  1
  O  O280  1  0.63260000  0.41730000  0.89090000  1
  O  O281  1  0.57340000  0.34120000  0.94130000  1
  O  O282  1  0.13260000  0.10910000  0.41730000  1
  O  O283  1  0.07340000  0.05870000  0.34120000  1
  O  O284  1  0.63260000  0.58270000  0.10910000  1
  O  O285  1  0.57340000  0.65880000  0.05870000  1
  O  O286  1  0.13260000  0.89090000  0.58270000  1
  O  O287  1  0.07340000  0.94130000  0.65880000  1
