# generated using pymatgen
data_Zr3H30(C21O8)2
_symmetry_space_group_name_H-M   'P 1'
_cell_length_a   15.01700000
_cell_length_b   24.37800000
_cell_length_c   24.37800000
_cell_angle_alpha   90.00000000
_cell_angle_beta   90.00000000
_cell_angle_gamma   90.00000000
_symmetry_Int_Tables_number   1
_chemical_formula_structural   Zr3H30(C21O8)2
_chemical_formula_sum   'Zr12 H120 C168 O64'
_cell_volume   8924.40613703
_cell_formula_units_Z   4
loop_
 _symmetry_equiv_pos_site_id
 _symmetry_equiv_pos_as_xyz
  1  'x, y, z'
loop_
 _atom_site_type_symbol
 _atom_site_label
 _atom_site_symmetry_multiplicity
 _atom_site_fract_x
 _atom_site_fract_y
 _atom_site_fract_z
 _atom_site_occupancy
  Zr  Zr0  1  0.50000000  0.89903000  0.50000000  1
  Zr  Zr1  1  0.50000000  0.10097000  0.50000000  1
  Zr  Zr2  1  0.00000000  0.50000000  0.89903000  1
  Zr  Zr3  1  0.00000000  0.50000000  0.10097000  1
  Zr  Zr4  1  0.61706000  0.00000000  0.42703000  1
  Zr  Zr5  1  0.61706000  0.00000000  0.57297000  1
  Zr  Zr6  1  0.11706000  0.57297000  0.00000000  1
  Zr  Zr7  1  0.11706000  0.42703000  0.00000000  1
  Zr  Zr8  1  0.38294000  0.00000000  0.42703000  1
  Zr  Zr9  1  0.38294000  0.00000000  0.57297000  1
  Zr  Zr10  1  0.88294000  0.42703000  0.00000000  1
  Zr  Zr11  1  0.88294000  0.57297000  0.00000000  1
  H  H12  1  0.60050000  0.76440000  0.39940000  1
  H  H13  1  0.80370000  0.81220000  0.26130000  1
  H  H14  1  0.75360000  0.87730000  0.32420000  1
  H  H15  1  0.59340000  0.67490000  0.37050000  1
  H  H16  1  0.68370000  0.65000000  0.34600000  1
  H  H17  1  0.60350000  0.66580000  0.30570000  1
  H  H18  1  0.66920000  0.96790000  0.11430000  1
  H  H19  1  0.60050000  0.23560000  0.60060000  1
  H  H20  1  0.80370000  0.18780000  0.73870000  1
  H  H21  1  0.75360000  0.12270000  0.67580000  1
  H  H22  1  0.59340000  0.32510000  0.62950000  1
  H  H23  1  0.68370000  0.35000000  0.65400000  1
  H  H24  1  0.60350000  0.33420000  0.69430000  1
  H  H25  1  0.10050000  0.60060000  0.76440000  1
  H  H26  1  0.30370000  0.73870000  0.81220000  1
  H  H27  1  0.25360000  0.67580000  0.87730000  1
  H  H28  1  0.09340000  0.62950000  0.67490000  1
  H  H29  1  0.18370000  0.65400000  0.65000000  1
  H  H30  1  0.10350000  0.69430000  0.66580000  1
  H  H31  1  0.10050000  0.39940000  0.23560000  1
  H  H32  1  0.30370000  0.26130000  0.18780000  1
  H  H33  1  0.25360000  0.32420000  0.12270000  1
  H  H34  1  0.09340000  0.37050000  0.32510000  1
  H  H35  1  0.18370000  0.34600000  0.35000000  1
  H  H36  1  0.10350000  0.30570000  0.33420000  1
  H  H37  1  0.16920000  0.11430000  0.03210000  1
  H  H38  1  0.39950000  0.23560000  0.39940000  1
  H  H39  1  0.19630000  0.18780000  0.26130000  1
  H  H40  1  0.24640000  0.12270000  0.32420000  1
  H  H41  1  0.40660000  0.32510000  0.37050000  1
  H  H42  1  0.31630000  0.35000000  0.34600000  1
  H  H43  1  0.39650000  0.33420000  0.30570000  1
  H  H44  1  0.39950000  0.76440000  0.60060000  1
  H  H45  1  0.19630000  0.81220000  0.73870000  1
  H  H46  1  0.24640000  0.87730000  0.67580000  1
  H  H47  1  0.40660000  0.67490000  0.62950000  1
  H  H48  1  0.31630000  0.65000000  0.65400000  1
  H  H49  1  0.39650000  0.66580000  0.69430000  1
  H  H50  1  0.33080000  0.96790000  0.88570000  1
  H  H51  1  0.89950000  0.39940000  0.76440000  1
  H  H52  1  0.69630000  0.26130000  0.81220000  1
  H  H53  1  0.74640000  0.32420000  0.87730000  1
  H  H54  1  0.90660000  0.37050000  0.67490000  1
  H  H55  1  0.81630000  0.34600000  0.65000000  1
  H  H56  1  0.89650000  0.30570000  0.66580000  1
  H  H57  1  0.89950000  0.60060000  0.23560000  1
  H  H58  1  0.69630000  0.73870000  0.18780000  1
  H  H59  1  0.74640000  0.67580000  0.12270000  1
  H  H60  1  0.90660000  0.62950000  0.32510000  1
  H  H61  1  0.81630000  0.65400000  0.35000000  1
  H  H62  1  0.89650000  0.69430000  0.33420000  1
  H  H63  1  0.83080000  0.88570000  0.03210000  1
  H  H64  1  0.39950000  0.23560000  0.60060000  1
  H  H65  1  0.19630000  0.18780000  0.73870000  1
  H  H66  1  0.24640000  0.12270000  0.67580000  1
  H  H67  1  0.40660000  0.32510000  0.62950000  1
  H  H68  1  0.31630000  0.35000000  0.65400000  1
  H  H69  1  0.39650000  0.33420000  0.69430000  1
  H  H70  1  0.33080000  0.03210000  0.88570000  1
  H  H71  1  0.39950000  0.76440000  0.39940000  1
  H  H72  1  0.19630000  0.81220000  0.26130000  1
  H  H73  1  0.24640000  0.87730000  0.32420000  1
  H  H74  1  0.40660000  0.67490000  0.37050000  1
  H  H75  1  0.31630000  0.65000000  0.34600000  1
  H  H76  1  0.39650000  0.66580000  0.30570000  1
  H  H77  1  0.89950000  0.39940000  0.23560000  1
  H  H78  1  0.69630000  0.26130000  0.18780000  1
  H  H79  1  0.74640000  0.32420000  0.12270000  1
  H  H80  1  0.90660000  0.37050000  0.32510000  1
  H  H81  1  0.81630000  0.34600000  0.35000000  1
  H  H82  1  0.89650000  0.30570000  0.33420000  1
  H  H83  1  0.89950000  0.60060000  0.76440000  1
  H  H84  1  0.69630000  0.73870000  0.81220000  1
  H  H85  1  0.74640000  0.67580000  0.87730000  1
  H  H86  1  0.90660000  0.62950000  0.67490000  1
  H  H87  1  0.81630000  0.65400000  0.65000000  1
  H  H88  1  0.89650000  0.69430000  0.66580000  1
  H  H89  1  0.83080000  0.88570000  0.96790000  1
  H  H90  1  0.60050000  0.76440000  0.60060000  1
  H  H91  1  0.80370000  0.81220000  0.73870000  1
  H  H92  1  0.75360000  0.87730000  0.67580000  1
  H  H93  1  0.59340000  0.67490000  0.62950000  1
  H  H94  1  0.68370000  0.65000000  0.65400000  1
  H  H95  1  0.60350000  0.66580000  0.69430000  1
  H  H96  1  0.60050000  0.23560000  0.39940000  1
  H  H97  1  0.80370000  0.18780000  0.26130000  1
  H  H98  1  0.75360000  0.12270000  0.32420000  1
  H  H99  1  0.59340000  0.32510000  0.37050000  1
  H  H100  1  0.68370000  0.35000000  0.34600000  1
  H  H101  1  0.60350000  0.33420000  0.30570000  1
  H  H102  1  0.66920000  0.03210000  0.11430000  1
  H  H103  1  0.10050000  0.60060000  0.23560000  1
  H  H104  1  0.30370000  0.73870000  0.18780000  1
  H  H105  1  0.25360000  0.67580000  0.12270000  1
  H  H106  1  0.09340000  0.62950000  0.32510000  1
  H  H107  1  0.18370000  0.65400000  0.35000000  1
  H  H108  1  0.10350000  0.69430000  0.33420000  1
  H  H109  1  0.10050000  0.39940000  0.76440000  1
  H  H110  1  0.30370000  0.26130000  0.81220000  1
  H  H111  1  0.25360000  0.32420000  0.87730000  1
  H  H112  1  0.09340000  0.37050000  0.67490000  1
  H  H113  1  0.18370000  0.34600000  0.65000000  1
  H  H114  1  0.10350000  0.30570000  0.66580000  1
  H  H115  1  0.16920000  0.11430000  0.96790000  1
  H  H116  1  0.63600000  0.00000000  0.24400000  1
  H  H117  1  0.71430000  0.00000000  0.16250000  1
  H  H118  1  0.63600000  0.00000000  0.75600000  1
  H  H119  1  0.63610000  1.00000000  0.85230000  1
  H  H120  1  0.13600000  0.75600000  0.00000000  1
  H  H121  1  0.13610000  0.85230000  0.00000000  1
  H  H122  1  0.13600000  0.24400000  0.00000000  1
  H  H123  1  0.21430000  0.16250000  0.00000000  1
  H  H124  1  0.36400000  0.00000000  0.24400000  1
  H  H125  1  0.36390000  0.00000000  0.14770000  1
  H  H126  1  0.36400000  0.00000000  0.75600000  1
  H  H127  1  0.28570000  0.00000000  0.83750000  1
  H  H128  1  0.86400000  0.24400000  0.00000000  1
  H  H129  1  0.86390000  0.14770000  0.00000000  1
  H  H130  1  0.86400000  0.75600000  0.00000000  1
  H  H131  1  0.78570000  0.83750000  0.00000000  1
  C  C132  1  0.64000000  0.86810000  0.40800000  1
  C  C133  1  0.67320000  0.82630000  0.36740000  1
  C  C134  1  0.64210000  0.77390000  0.37160000  1
  C  C135  1  0.67260000  0.73340000  0.33360000  1
  C  C136  1  0.73250000  0.74660000  0.29420000  1
  C  C137  1  0.76330000  0.80210000  0.28950000  1
  C  C138  1  0.73300000  0.84050000  0.32670000  1
  C  C139  1  0.63500000  0.67600000  0.33950000  1
  C  C140  1  0.64000000  0.13190000  0.59200000  1
  C  C141  1  0.67320000  0.17370000  0.63260000  1
  C  C142  1  0.64210000  0.22610000  0.62840000  1
  C  C143  1  0.67260000  0.26660000  0.66640000  1
  C  C144  1  0.73250000  0.25340000  0.70580000  1
  C  C145  1  0.76330000  0.19790000  0.71050000  1
  C  C146  1  0.73300000  0.15950000  0.67330000  1
  C  C147  1  0.63500000  0.32400000  0.66050000  1
  C  C148  1  0.14000000  0.59200000  0.86810000  1
  C  C149  1  0.17320000  0.63260000  0.82630000  1
  C  C150  1  0.14210000  0.62840000  0.77390000  1
  C  C151  1  0.17260000  0.66640000  0.73340000  1
  C  C152  1  0.23250000  0.70580000  0.74660000  1
  C  C153  1  0.26330000  0.71050000  0.80210000  1
  C  C154  1  0.23300000  0.67330000  0.84050000  1
  C  C155  1  0.13500000  0.66050000  0.67600000  1
  C  C156  1  0.14000000  0.40800000  0.13190000  1
  C  C157  1  0.17320000  0.36740000  0.17370000  1
  C  C158  1  0.14210000  0.37160000  0.22610000  1
  C  C159  1  0.17260000  0.33360000  0.26660000  1
  C  C160  1  0.23250000  0.29420000  0.25340000  1
  C  C161  1  0.26330000  0.28950000  0.19790000  1
  C  C162  1  0.23300000  0.32670000  0.15950000  1
  C  C163  1  0.13500000  0.33950000  0.32400000  1
  C  C164  1  0.36000000  0.13190000  0.40800000  1
  C  C165  1  0.32680000  0.17370000  0.36740000  1
  C  C166  1  0.35790000  0.22610000  0.37160000  1
  C  C167  1  0.32740000  0.26660000  0.33360000  1
  C  C168  1  0.26750000  0.25340000  0.29420000  1
  C  C169  1  0.23670000  0.19790000  0.28950000  1
  C  C170  1  0.26700000  0.15950000  0.32670000  1
  C  C171  1  0.36500000  0.32400000  0.33950000  1
  C  C172  1  0.36000000  0.86810000  0.59200000  1
  C  C173  1  0.32680000  0.82630000  0.63260000  1
  C  C174  1  0.35790000  0.77390000  0.62840000  1
  C  C175  1  0.32740000  0.73340000  0.66640000  1
  C  C176  1  0.26750000  0.74660000  0.70580000  1
  C  C177  1  0.23670000  0.80210000  0.71050000  1
  C  C178  1  0.26700000  0.84050000  0.67330000  1
  C  C179  1  0.36500000  0.67600000  0.66050000  1
  C  C180  1  0.86000000  0.40800000  0.86810000  1
  C  C181  1  0.82680000  0.36740000  0.82630000  1
  C  C182  1  0.85790000  0.37160000  0.77390000  1
  C  C183  1  0.82740000  0.33360000  0.73340000  1
  C  C184  1  0.76750000  0.29420000  0.74660000  1
  C  C185  1  0.73670000  0.28950000  0.80210000  1
  C  C186  1  0.76700000  0.32670000  0.84050000  1
  C  C187  1  0.86500000  0.33950000  0.67600000  1
  C  C188  1  0.86000000  0.59200000  0.13190000  1
  C  C189  1  0.82680000  0.63260000  0.17370000  1
  C  C190  1  0.85790000  0.62840000  0.22610000  1
  C  C191  1  0.82740000  0.66640000  0.26660000  1
  C  C192  1  0.76750000  0.70580000  0.25340000  1
  C  C193  1  0.73670000  0.71050000  0.19790000  1
  C  C194  1  0.76700000  0.67330000  0.15950000  1
  C  C195  1  0.86500000  0.66050000  0.32400000  1
  C  C196  1  0.36000000  0.13190000  0.59200000  1
  C  C197  1  0.32680000  0.17370000  0.63260000  1
  C  C198  1  0.35790000  0.22610000  0.62840000  1
  C  C199  1  0.32740000  0.26660000  0.66640000  1
  C  C200  1  0.26750000  0.25340000  0.70580000  1
  C  C201  1  0.23670000  0.19790000  0.71050000  1
  C  C202  1  0.26700000  0.15950000  0.67330000  1
  C  C203  1  0.36500000  0.32400000  0.66050000  1
  C  C204  1  0.36000000  0.86810000  0.40800000  1
  C  C205  1  0.32680000  0.82630000  0.36740000  1
  C  C206  1  0.35790000  0.77390000  0.37160000  1
  C  C207  1  0.32740000  0.73340000  0.33360000  1
  C  C208  1  0.26750000  0.74660000  0.29420000  1
  C  C209  1  0.23670000  0.80210000  0.28950000  1
  C  C210  1  0.26700000  0.84050000  0.32670000  1
  C  C211  1  0.36500000  0.67600000  0.33950000  1
  C  C212  1  0.86000000  0.40800000  0.13190000  1
  C  C213  1  0.82680000  0.36740000  0.17370000  1
  C  C214  1  0.85790000  0.37160000  0.22610000  1
  C  C215  1  0.82740000  0.33360000  0.26660000  1
  C  C216  1  0.76750000  0.29420000  0.25340000  1
  C  C217  1  0.73670000  0.28950000  0.19790000  1
  C  C218  1  0.76700000  0.32670000  0.15950000  1
  C  C219  1  0.86500000  0.33950000  0.32400000  1
  C  C220  1  0.86000000  0.59200000  0.86810000  1
  C  C221  1  0.82680000  0.63260000  0.82630000  1
  C  C222  1  0.85790000  0.62840000  0.77390000  1
  C  C223  1  0.82740000  0.66640000  0.73340000  1
  C  C224  1  0.76750000  0.70580000  0.74660000  1
  C  C225  1  0.73670000  0.71050000  0.80210000  1
  C  C226  1  0.76700000  0.67330000  0.84050000  1
  C  C227  1  0.86500000  0.66050000  0.67600000  1
  C  C228  1  0.64000000  0.86810000  0.59200000  1
  C  C229  1  0.67320000  0.82630000  0.63260000  1
  C  C230  1  0.64210000  0.77390000  0.62840000  1
  C  C231  1  0.67260000  0.73340000  0.66640000  1
  C  C232  1  0.73250000  0.74660000  0.70580000  1
  C  C233  1  0.76330000  0.80210000  0.71050000  1
  C  C234  1  0.73300000  0.84050000  0.67330000  1
  C  C235  1  0.63500000  0.67600000  0.66050000  1
  C  C236  1  0.64000000  0.13190000  0.40800000  1
  C  C237  1  0.67320000  0.17370000  0.36740000  1
  C  C238  1  0.64210000  0.22610000  0.37160000  1
  C  C239  1  0.67260000  0.26660000  0.33360000  1
  C  C240  1  0.73250000  0.25340000  0.29420000  1
  C  C241  1  0.76330000  0.19790000  0.28950000  1
  C  C242  1  0.73300000  0.15950000  0.32670000  1
  C  C243  1  0.63500000  0.32400000  0.33950000  1
  C  C244  1  0.14000000  0.59200000  0.13190000  1
  C  C245  1  0.17320000  0.63260000  0.17370000  1
  C  C246  1  0.14210000  0.62840000  0.22610000  1
  C  C247  1  0.17260000  0.66640000  0.26660000  1
  C  C248  1  0.23250000  0.70580000  0.25340000  1
  C  C249  1  0.26330000  0.71050000  0.19790000  1
  C  C250  1  0.23300000  0.67330000  0.15950000  1
  C  C251  1  0.13500000  0.66050000  0.32400000  1
  C  C252  1  0.14000000  0.40800000  0.86810000  1
  C  C253  1  0.17320000  0.36740000  0.82630000  1
  C  C254  1  0.14210000  0.37160000  0.77390000  1
  C  C255  1  0.17260000  0.33360000  0.73340000  1
  C  C256  1  0.23250000  0.29420000  0.74660000  1
  C  C257  1  0.26330000  0.28950000  0.80210000  1
  C  C258  1  0.23300000  0.32670000  0.84050000  1
  C  C259  1  0.13500000  0.33950000  0.67600000  1
  C  C260  1  0.58120000  0.00000000  0.22450000  1
  C  C261  1  0.57910000  0.00000000  0.16760000  1
  C  C262  1  0.66580000  1.00000000  0.13690000  1
  C  C263  1  0.58120000  1.00000000  0.77550000  1
  C  C264  1  0.57910000  0.00000000  0.83240000  1
  C  C265  1  0.08120000  0.77550000  0.00000000  1
  C  C266  1  0.07910000  0.83240000  0.00000000  1
  C  C267  1  0.08120000  0.22450000  0.00000000  1
  C  C268  1  0.07910000  0.16760000  0.00000000  1
  C  C269  1  0.16580000  0.13690000  0.00000000  1
  C  C270  1  0.41880000  0.00000000  0.22450000  1
  C  C271  1  0.42090000  0.00000000  0.16760000  1
  C  C272  1  0.41880000  1.00000000  0.77550000  1
  C  C273  1  0.42090000  0.00000000  0.83240000  1
  C  C274  1  0.33420000  1.00000000  0.86310000  1
  C  C275  1  0.91880000  0.22450000  0.00000000  1
  C  C276  1  0.92090000  0.16760000  0.00000000  1
  C  C277  1  0.91880000  0.77550000  0.00000000  1
  C  C278  1  0.92090000  0.83240000  0.00000000  1
  C  C279  1  0.83420000  0.86310000  0.00000000  1
  C  C280  1  0.50000000  1.00000000  0.31450000  1
  C  C281  1  0.50000000  0.00000000  0.25340000  1
  C  C282  1  0.50000000  0.00000000  0.13850000  1
  C  C283  1  0.50000000  1.00000000  0.07760000  1
  C  C284  1  0.50000000  1.00000000  0.02870000  1
  C  C285  1  0.50000000  0.00000000  0.68550000  1
  C  C286  1  0.50000000  0.00000000  0.74660000  1
  C  C287  1  0.50000000  1.00000000  0.86150000  1
  C  C288  1  0.50000000  1.00000000  0.92240000  1
  C  C289  1  0.50000000  1.00000000  0.97130000  1
  C  C290  1  0.00000000  0.68550000  0.00000000  1
  C  C291  1  0.00000000  0.74660000  0.00000000  1
  C  C292  1  0.00000000  0.86150000  0.00000000  1
  C  C293  1  0.00000000  0.92240000  0.00000000  1
  C  C294  1  0.00000000  0.97130000  0.00000000  1
  C  C295  1  0.00000000  0.31450000  0.00000000  1
  C  C296  1  0.00000000  0.25340000  0.00000000  1
  C  C297  1  1.00000000  0.13850000  0.00000000  1
  C  C298  1  0.00000000  0.07760000  0.00000000  1
  C  C299  1  0.00000000  0.02870000  0.00000000  1
  O  O300  1  0.58890000  0.85281000  0.44550000  1
  O  O301  1  0.66290000  0.91800000  0.39620000  1
  O  O302  1  0.58890000  0.14719000  0.55450000  1
  O  O303  1  0.66290000  0.08200000  0.60380000  1
  O  O304  1  0.08890000  0.55450000  0.85281000  1
  O  O305  1  0.16290000  0.60380000  0.91800000  1
  O  O306  1  0.08890000  0.44550000  0.14719000  1
  O  O307  1  0.16290000  0.39620000  0.08200000  1
  O  O308  1  0.41110000  0.14719000  0.44550000  1
  O  O309  1  0.33710000  0.08200000  0.39620000  1
  O  O310  1  0.41110000  0.85281000  0.55450000  1
  O  O311  1  0.33710000  0.91800000  0.60380000  1
  O  O312  1  0.91110000  0.44550000  0.85281000  1
  O  O313  1  0.83710000  0.39620000  0.91800000  1
  O  O314  1  0.91110000  0.55450000  0.14719000  1
  O  O315  1  0.83710000  0.60380000  0.08200000  1
  O  O316  1  0.41110000  0.14719000  0.55450000  1
  O  O317  1  0.33710000  0.08200000  0.60380000  1
  O  O318  1  0.41110000  0.85281000  0.44550000  1
  O  O319  1  0.33710000  0.91800000  0.39620000  1
  O  O320  1  0.91110000  0.44550000  0.14719000  1
  O  O321  1  0.83710000  0.39620000  0.08200000  1
  O  O322  1  0.91110000  0.55450000  0.85281000  1
  O  O323  1  0.83710000  0.60380000  0.91800000  1
  O  O324  1  0.58890000  0.85281000  0.55450000  1
  O  O325  1  0.66290000  0.91800000  0.60380000  1
  O  O326  1  0.58890000  0.14719000  0.44550000  1
  O  O327  1  0.66290000  0.08200000  0.39620000  1
  O  O328  1  0.08890000  0.55450000  0.14719000  1
  O  O329  1  0.16290000  0.60380000  0.08200000  1
  O  O330  1  0.08890000  0.44550000  0.85281000  1
  O  O331  1  0.16290000  0.39620000  0.91800000  1
  O  O332  1  0.76560000  1.00000000  0.43090000  1
  O  O333  1  0.60270000  1.00000000  0.33890000  1
  O  O334  1  0.76560000  0.00000000  0.56910000  1
  O  O335  1  0.60270000  1.00000000  0.66110000  1
  O  O336  1  0.26560000  0.56910000  0.00000000  1
  O  O337  1  0.10270000  0.66110000  0.00000000  1
  O  O338  1  0.26560000  0.43090000  0.00000000  1
  O  O339  1  0.10270000  0.33890000  0.00000000  1
  O  O340  1  0.23440000  1.00000000  0.43090000  1
  O  O341  1  0.39730000  1.00000000  0.33890000  1
  O  O342  1  0.23440000  0.00000000  0.56910000  1
  O  O343  1  0.39730000  1.00000000  0.66110000  1
  O  O344  1  0.73440000  0.43090000  0.00000000  1
  O  O345  1  0.89730000  0.33890000  0.00000000  1
  O  O346  1  0.73440000  0.56910000  0.00000000  1
  O  O347  1  0.89730000  0.66110000  0.00000000  1
  O  O348  1  0.61970000  0.04950000  0.50000000  1
  O  O349  1  0.61970000  0.95050000  0.50000000  1
  O  O350  1  0.11970000  0.50000000  0.04950000  1
  O  O351  1  0.11970000  0.50000000  0.95050000  1
  O  O352  1  0.38030000  0.95050000  0.50000000  1
  O  O353  1  0.38030000  0.04950000  0.50000000  1
  O  O354  1  0.88030000  0.50000000  0.04950000  1
  O  O355  1  0.88030000  0.50000000  0.95050000  1
  O  O356  1  0.50000000  0.94990000  0.42810000  1
  O  O357  1  0.50000000  0.05010000  0.57190000  1
  O  O358  1  1.00000000  0.57190000  0.94990000  1
  O  O359  1  0.00000000  0.42810000  0.05010000  1
  O  O360  1  0.50000000  0.05010000  0.42810000  1
  O  O361  1  0.50000000  0.94990000  0.57190000  1
  O  O362  1  0.00000000  0.42810000  0.94990000  1
  O  O363  1  0.00000000  0.57190000  0.05010000  1
