# generated using pymatgen
data_Zr3H32(C23O8)2
_symmetry_space_group_name_H-M   'P 1'
_cell_length_a   14.85900000
_cell_length_b   24.28800000
_cell_length_c   24.28800000
_cell_angle_alpha   90.00000000
_cell_angle_beta   90.00000000
_cell_angle_gamma   90.00000000
_symmetry_Int_Tables_number   1
_chemical_formula_structural   Zr3H32(C23O8)2
_chemical_formula_sum   'Zr12 H128 C184 O64'
_cell_volume   8765.42728090
_cell_formula_units_Z   4
loop_
 _symmetry_equiv_pos_site_id
 _symmetry_equiv_pos_as_xyz
  1  'x, y, z'
loop_
 _atom_site_type_symbol
 _atom_site_label
 _atom_site_symmetry_multiplicity
 _atom_site_fract_x
 _atom_site_fract_y
 _atom_site_fract_z
 _atom_site_occupancy
  Zr  Zr0  1  0.50000000  0.10133000  0.50000000  1
  Zr  Zr1  1  0.50000000  0.89867000  0.50000000  1
  Zr  Zr2  1  1.00000000  0.50000000  0.10133000  1
  Zr  Zr3  1  1.00000000  0.50000000  0.89867000  1
  Zr  Zr4  1  0.61821000  0.00000000  0.57232000  1
  Zr  Zr5  1  0.61821000  0.00000000  0.42768000  1
  Zr  Zr6  1  0.11821000  0.42768000  0.00000000  1
  Zr  Zr7  1  0.11821000  0.57232000  0.00000000  1
  Zr  Zr8  1  0.38179000  0.00000000  0.57232000  1
  Zr  Zr9  1  0.38179000  0.00000000  0.42768000  1
  Zr  Zr10  1  0.88179000  0.57232000  0.00000000  1
  Zr  Zr11  1  0.88179000  0.42768000  0.00000000  1
  H  H12  1  0.74900000  0.11920000  0.68150000  1
  H  H13  1  0.79840000  0.18620000  0.74370000  1
  H  H14  1  0.60860000  0.23540000  0.59800000  1
  H  H15  1  0.58950000  0.32530000  0.63780000  1
  H  H16  1  0.69250000  0.34440000  0.63630000  1
  H  H17  1  0.64000000  0.34140000  0.69380000  1
  H  H18  1  0.74900000  0.88080000  0.31850000  1
  H  H19  1  0.79840000  0.81380000  0.25630000  1
  H  H20  1  0.60860000  0.76460000  0.40200000  1
  H  H21  1  0.58950000  0.67470000  0.36220000  1
  H  H22  1  0.69250000  0.65560000  0.36370000  1
  H  H23  1  0.64000000  0.65860000  0.30620000  1
  H  H24  1  0.70180000  0.03230000  0.14620000  1
  H  H25  1  0.24900000  0.31850000  0.11920000  1
  H  H26  1  0.29840000  0.25630000  0.18620000  1
  H  H27  1  0.10860000  0.40200000  0.23540000  1
  H  H28  1  0.08950000  0.36220000  0.32530000  1
  H  H29  1  0.19250000  0.36370000  0.34440000  1
  H  H30  1  0.14000000  0.30620000  0.34140000  1
  H  H31  1  0.20180000  0.14620000  0.96770000  1
  H  H32  1  0.24900000  0.68150000  0.88080000  1
  H  H33  1  0.29840000  0.74370000  0.81380000  1
  H  H34  1  0.10860000  0.59800000  0.76460000  1
  H  H35  1  0.08950000  0.63780000  0.67470000  1
  H  H36  1  0.19250000  0.63630000  0.65560000  1
  H  H37  1  0.14000000  0.69380000  0.65860000  1
  H  H38  1  0.25100000  0.88080000  0.68150000  1
  H  H39  1  0.20160000  0.81380000  0.74370000  1
  H  H40  1  0.39140000  0.76460000  0.59800000  1
  H  H41  1  0.41050000  0.67470000  0.63780000  1
  H  H42  1  0.30750000  0.65560000  0.63630000  1
  H  H43  1  0.36000000  0.65860000  0.69380000  1
  H  H44  1  0.29820000  0.03230000  0.85380000  1
  H  H45  1  0.25100000  0.11920000  0.31850000  1
  H  H46  1  0.20160000  0.18620000  0.25630000  1
  H  H47  1  0.39140000  0.23540000  0.40200000  1
  H  H48  1  0.41050000  0.32530000  0.36220000  1
  H  H49  1  0.30750000  0.34440000  0.36370000  1
  H  H50  1  0.36000000  0.34140000  0.30620000  1
  H  H51  1  0.75100000  0.68150000  0.11920000  1
  H  H52  1  0.70160000  0.74370000  0.18620000  1
  H  H53  1  0.89140000  0.59800000  0.23540000  1
  H  H54  1  0.91050000  0.63780000  0.32530000  1
  H  H55  1  0.80750000  0.63630000  0.34440000  1
  H  H56  1  0.86000000  0.69380000  0.34140000  1
  H  H57  1  0.79820000  0.85380000  0.96770000  1
  H  H58  1  0.75100000  0.31850000  0.88080000  1
  H  H59  1  0.70160000  0.25630000  0.81380000  1
  H  H60  1  0.89140000  0.40200000  0.76460000  1
  H  H61  1  0.91050000  0.36220000  0.67470000  1
  H  H62  1  0.80750000  0.36370000  0.65560000  1
  H  H63  1  0.86000000  0.30620000  0.65860000  1
  H  H64  1  0.25100000  0.88080000  0.31850000  1
  H  H65  1  0.20160000  0.81380000  0.25630000  1
  H  H66  1  0.39140000  0.76460000  0.40200000  1
  H  H67  1  0.41050000  0.67470000  0.36220000  1
  H  H68  1  0.30750000  0.65560000  0.36370000  1
  H  H69  1  0.36000000  0.65860000  0.30620000  1
  H  H70  1  0.25100000  0.11920000  0.68150000  1
  H  H71  1  0.20160000  0.18620000  0.74370000  1
  H  H72  1  0.39140000  0.23540000  0.59800000  1
  H  H73  1  0.41050000  0.32530000  0.63780000  1
  H  H74  1  0.30750000  0.34440000  0.63630000  1
  H  H75  1  0.36000000  0.34140000  0.69380000  1
  H  H76  1  0.29820000  0.96770000  0.85380000  1
  H  H77  1  0.75100000  0.68150000  0.88080000  1
  H  H78  1  0.70160000  0.74370000  0.81380000  1
  H  H79  1  0.89140000  0.59800000  0.76460000  1
  H  H80  1  0.91050000  0.63780000  0.67470000  1
  H  H81  1  0.80750000  0.63630000  0.65560000  1
  H  H82  1  0.86000000  0.69380000  0.65860000  1
  H  H83  1  0.79820000  0.85380000  0.03230000  1
  H  H84  1  0.75100000  0.31850000  0.11920000  1
  H  H85  1  0.70160000  0.25630000  0.18620000  1
  H  H86  1  0.89140000  0.40200000  0.23540000  1
  H  H87  1  0.91050000  0.36220000  0.32530000  1
  H  H88  1  0.80750000  0.36370000  0.34440000  1
  H  H89  1  0.86000000  0.30620000  0.34140000  1
  H  H90  1  0.74900000  0.11920000  0.31850000  1
  H  H91  1  0.79840000  0.18620000  0.25630000  1
  H  H92  1  0.60860000  0.23540000  0.40200000  1
  H  H93  1  0.58950000  0.32530000  0.36220000  1
  H  H94  1  0.69250000  0.34440000  0.36370000  1
  H  H95  1  0.64000000  0.34140000  0.30620000  1
  H  H96  1  0.70180000  0.96770000  0.14620000  1
  H  H97  1  0.74900000  0.88080000  0.68150000  1
  H  H98  1  0.79840000  0.81380000  0.74370000  1
  H  H99  1  0.60860000  0.76460000  0.59800000  1
  H  H100  1  0.58950000  0.67470000  0.63780000  1
  H  H101  1  0.69250000  0.65560000  0.63630000  1
  H  H102  1  0.64000000  0.65860000  0.69380000  1
  H  H103  1  0.24900000  0.31850000  0.88080000  1
  H  H104  1  0.29840000  0.25630000  0.81380000  1
  H  H105  1  0.10860000  0.40200000  0.76460000  1
  H  H106  1  0.08950000  0.36220000  0.67470000  1
  H  H107  1  0.19250000  0.36370000  0.65560000  1
  H  H108  1  0.14000000  0.30620000  0.65860000  1
  H  H109  1  0.20180000  0.14620000  0.03230000  1
  H  H110  1  0.24900000  0.68150000  0.11920000  1
  H  H111  1  0.29840000  0.74370000  0.18620000  1
  H  H112  1  0.10860000  0.59800000  0.23540000  1
  H  H113  1  0.08950000  0.63780000  0.32530000  1
  H  H114  1  0.19250000  0.63630000  0.34440000  1
  H  H115  1  0.14000000  0.69380000  0.34140000  1
  H  H116  1  0.92130000  0.00000000  0.58340000  1
  H  H117  1  0.63640000  0.00000000  0.75430000  1
  H  H118  1  0.63700000  0.00000000  0.85090000  1
  H  H119  1  0.92130000  0.00000000  0.41660000  1
  H  H120  1  0.63640000  0.00000000  0.24570000  1
  H  H121  1  0.65540000  0.00000000  0.09800000  1
  H  H122  1  0.42130000  0.41660000  0.00000000  1
  H  H123  1  0.13640000  0.24570000  0.00000000  1
  H  H124  1  0.15540000  0.09800000  0.00000000  1
  H  H125  1  0.42130000  0.58340000  0.00000000  1
  H  H126  1  0.13640000  0.75430000  0.00000000  1
  H  H127  1  0.13700000  0.85090000  0.00000000  1
  H  H128  1  0.07870000  0.00000000  0.58340000  1
  H  H129  1  0.36360000  0.00000000  0.75430000  1
  H  H130  1  0.34460000  0.00000000  0.90200000  1
  H  H131  1  0.07870000  0.00000000  0.41660000  1
  H  H132  1  0.36360000  0.00000000  0.24570000  1
  H  H133  1  0.36300000  0.00000000  0.14910000  1
  H  H134  1  0.57870000  0.58340000  0.00000000  1
  H  H135  1  0.86360000  0.75430000  0.00000000  1
  H  H136  1  0.84460000  0.90200000  0.00000000  1
  H  H137  1  0.57870000  0.41660000  0.00000000  1
  H  H138  1  0.86360000  0.24570000  0.00000000  1
  H  H139  1  0.86300000  0.14910000  0.00000000  1
  C  C140  1  0.63870000  0.13170000  0.59200000  1
  C  C141  1  0.73050000  0.15640000  0.67720000  1
  C  C142  1  0.67410000  0.17100000  0.63390000  1
  C  C143  1  0.73290000  0.25060000  0.70780000  1
  C  C144  1  0.75990000  0.19620000  0.71420000  1
  C  C145  1  0.64710000  0.22540000  0.62760000  1
  C  C146  1  0.67650000  0.26520000  0.66450000  1
  C  C147  1  0.64700000  0.32420000  0.65750000  1
  C  C148  1  0.63870000  0.86830000  0.40800000  1
  C  C149  1  0.73050000  0.84360000  0.32280000  1
  C  C150  1  0.67410000  0.82900000  0.36610000  1
  C  C151  1  0.73290000  0.74940000  0.29220000  1
  C  C152  1  0.75990000  0.80380000  0.28580000  1
  C  C153  1  0.64710000  0.77460000  0.37240000  1
  C  C154  1  0.67650000  0.73480000  0.33550000  1
  C  C155  1  0.64700000  0.67580000  0.34250000  1
  C  C156  1  0.13870000  0.40800000  0.13170000  1
  C  C157  1  0.23050000  0.32280000  0.15640000  1
  C  C158  1  0.17410000  0.36610000  0.17100000  1
  C  C159  1  0.23290000  0.29220000  0.25060000  1
  C  C160  1  0.25990000  0.28580000  0.19620000  1
  C  C161  1  0.14710000  0.37240000  0.22540000  1
  C  C162  1  0.17650000  0.33550000  0.26520000  1
  C  C163  1  0.14700000  0.34250000  0.32420000  1
  C  C164  1  0.13870000  0.59200000  0.86830000  1
  C  C165  1  0.23050000  0.67720000  0.84360000  1
  C  C166  1  0.17410000  0.63390000  0.82900000  1
  C  C167  1  0.23290000  0.70780000  0.74940000  1
  C  C168  1  0.25990000  0.71420000  0.80380000  1
  C  C169  1  0.14710000  0.62760000  0.77460000  1
  C  C170  1  0.17650000  0.66450000  0.73480000  1
  C  C171  1  0.14700000  0.65750000  0.67580000  1
  C  C172  1  0.36130000  0.86830000  0.59200000  1
  C  C173  1  0.26950000  0.84360000  0.67720000  1
  C  C174  1  0.32590000  0.82900000  0.63390000  1
  C  C175  1  0.26710000  0.74940000  0.70780000  1
  C  C176  1  0.24010000  0.80380000  0.71420000  1
  C  C177  1  0.35290000  0.77460000  0.62760000  1
  C  C178  1  0.32350000  0.73480000  0.66450000  1
  C  C179  1  0.35300000  0.67580000  0.65750000  1
  C  C180  1  0.36130000  0.13170000  0.40800000  1
  C  C181  1  0.26950000  0.15640000  0.32280000  1
  C  C182  1  0.32590000  0.17100000  0.36610000  1
  C  C183  1  0.26710000  0.25060000  0.29220000  1
  C  C184  1  0.24010000  0.19620000  0.28580000  1
  C  C185  1  0.35290000  0.22540000  0.37240000  1
  C  C186  1  0.32350000  0.26520000  0.33550000  1
  C  C187  1  0.35300000  0.32420000  0.34250000  1
  C  C188  1  0.86130000  0.59200000  0.13170000  1
  C  C189  1  0.76950000  0.67720000  0.15640000  1
  C  C190  1  0.82590000  0.63390000  0.17100000  1
  C  C191  1  0.76710000  0.70780000  0.25060000  1
  C  C192  1  0.74010000  0.71420000  0.19620000  1
  C  C193  1  0.85290000  0.62760000  0.22540000  1
  C  C194  1  0.82350000  0.66450000  0.26520000  1
  C  C195  1  0.85300000  0.65750000  0.32420000  1
  C  C196  1  0.86130000  0.40800000  0.86830000  1
  C  C197  1  0.76950000  0.32280000  0.84360000  1
  C  C198  1  0.82590000  0.36610000  0.82900000  1
  C  C199  1  0.76710000  0.29220000  0.74940000  1
  C  C200  1  0.74010000  0.28580000  0.80380000  1
  C  C201  1  0.85290000  0.37240000  0.77460000  1
  C  C202  1  0.82350000  0.33550000  0.73480000  1
  C  C203  1  0.85300000  0.34250000  0.67580000  1
  C  C204  1  0.36130000  0.86830000  0.40800000  1
  C  C205  1  0.26950000  0.84360000  0.32280000  1
  C  C206  1  0.32590000  0.82900000  0.36610000  1
  C  C207  1  0.26710000  0.74940000  0.29220000  1
  C  C208  1  0.24010000  0.80380000  0.28580000  1
  C  C209  1  0.35290000  0.77460000  0.37240000  1
  C  C210  1  0.32350000  0.73480000  0.33550000  1
  C  C211  1  0.35300000  0.67580000  0.34250000  1
  C  C212  1  0.36130000  0.13170000  0.59200000  1
  C  C213  1  0.26950000  0.15640000  0.67720000  1
  C  C214  1  0.32590000  0.17100000  0.63390000  1
  C  C215  1  0.26710000  0.25060000  0.70780000  1
  C  C216  1  0.24010000  0.19620000  0.71420000  1
  C  C217  1  0.35290000  0.22540000  0.62760000  1
  C  C218  1  0.32350000  0.26520000  0.66450000  1
  C  C219  1  0.35300000  0.32420000  0.65750000  1
  C  C220  1  0.86130000  0.59200000  0.86830000  1
  C  C221  1  0.76950000  0.67720000  0.84360000  1
  C  C222  1  0.82590000  0.63390000  0.82900000  1
  C  C223  1  0.76710000  0.70780000  0.74940000  1
  C  C224  1  0.74010000  0.71420000  0.80380000  1
  C  C225  1  0.85290000  0.62760000  0.77460000  1
  C  C226  1  0.82350000  0.66450000  0.73480000  1
  C  C227  1  0.85300000  0.65750000  0.67580000  1
  C  C228  1  0.86130000  0.40800000  0.13170000  1
  C  C229  1  0.76950000  0.32280000  0.15640000  1
  C  C230  1  0.82590000  0.36610000  0.17100000  1
  C  C231  1  0.76710000  0.29220000  0.25060000  1
  C  C232  1  0.74010000  0.28580000  0.19620000  1
  C  C233  1  0.85290000  0.37240000  0.22540000  1
  C  C234  1  0.82350000  0.33550000  0.26520000  1
  C  C235  1  0.85300000  0.34250000  0.32420000  1
  C  C236  1  0.63870000  0.13170000  0.40800000  1
  C  C237  1  0.73050000  0.15640000  0.32280000  1
  C  C238  1  0.67410000  0.17100000  0.36610000  1
  C  C239  1  0.73290000  0.25060000  0.29220000  1
  C  C240  1  0.75990000  0.19620000  0.28580000  1
  C  C241  1  0.64710000  0.22540000  0.37240000  1
  C  C242  1  0.67650000  0.26520000  0.33550000  1
  C  C243  1  0.64700000  0.32420000  0.34250000  1
  C  C244  1  0.63870000  0.86830000  0.59200000  1
  C  C245  1  0.73050000  0.84360000  0.67720000  1
  C  C246  1  0.67410000  0.82900000  0.63390000  1
  C  C247  1  0.73290000  0.74940000  0.70780000  1
  C  C248  1  0.75990000  0.80380000  0.71420000  1
  C  C249  1  0.64710000  0.77460000  0.62760000  1
  C  C250  1  0.67650000  0.73480000  0.66450000  1
  C  C251  1  0.64700000  0.67580000  0.65750000  1
  C  C252  1  0.13870000  0.40800000  0.86830000  1
  C  C253  1  0.23050000  0.32280000  0.84360000  1
  C  C254  1  0.17410000  0.36610000  0.82900000  1
  C  C255  1  0.23290000  0.29220000  0.74940000  1
  C  C256  1  0.25990000  0.28580000  0.80380000  1
  C  C257  1  0.14710000  0.37240000  0.77460000  1
  C  C258  1  0.17650000  0.33550000  0.73480000  1
  C  C259  1  0.14700000  0.34250000  0.67580000  1
  C  C260  1  0.13870000  0.59200000  0.13170000  1
  C  C261  1  0.23050000  0.67720000  0.15640000  1
  C  C262  1  0.17410000  0.63390000  0.17100000  1
  C  C263  1  0.23290000  0.70780000  0.25060000  1
  C  C264  1  0.25990000  0.71420000  0.19620000  1
  C  C265  1  0.14710000  0.62760000  0.22540000  1
  C  C266  1  0.17650000  0.66450000  0.26520000  1
  C  C267  1  0.14700000  0.65750000  0.32420000  1
  C  C268  1  0.95321000  0.00000000  0.54957000  1
  C  C269  1  0.58103000  0.00000000  0.77390000  1
  C  C270  1  0.58103000  0.00000000  0.83110000  1
  C  C271  1  0.95321000  1.00000000  0.45043000  1
  C  C272  1  0.58103000  0.00000000  0.22610000  1
  C  C273  1  0.58103000  0.00000000  0.16890000  1
  C  C274  1  0.66780000  0.00000000  0.13680000  1
  C  C275  1  0.45321000  0.45043000  0.00000000  1
  C  C276  1  0.08103000  0.22610000  0.00000000  1
  C  C277  1  0.08103000  0.16890000  0.00000000  1
  C  C278  1  0.16780000  0.13680000  0.00000000  1
  C  C279  1  0.45321000  0.54957000  0.00000000  1
  C  C280  1  0.08103000  0.77390000  0.00000000  1
  C  C281  1  0.08103000  0.83110000  0.00000000  1
  C  C282  1  0.04679000  0.00000000  0.54957000  1
  C  C283  1  0.41897000  0.00000000  0.77390000  1
  C  C284  1  0.41897000  0.00000000  0.83110000  1
  C  C285  1  0.33220000  0.00000000  0.86320000  1
  C  C286  1  0.04679000  1.00000000  0.45043000  1
  C  C287  1  0.41897000  0.00000000  0.22610000  1
  C  C288  1  0.41897000  0.00000000  0.16890000  1
  C  C289  1  0.54679000  0.54957000  0.00000000  1
  C  C290  1  0.91897000  0.77390000  0.00000000  1
  C  C291  1  0.91897000  0.83110000  0.00000000  1
  C  C292  1  0.83220000  0.86320000  0.00000000  1
  C  C293  1  0.54679000  0.45043000  0.00000000  1
  C  C294  1  0.91897000  0.22610000  0.00000000  1
  C  C295  1  0.91897000  0.16890000  0.00000000  1
  C  C296  1  0.80280000  0.00000000  0.50000000  1
  C  C297  1  0.90635000  0.00000000  0.50000000  1
  C  C298  1  0.30280000  0.50000000  0.00000000  1
  C  C299  1  0.40635000  0.50000000  0.00000000  1
  C  C300  1  0.19720000  0.00000000  0.50000000  1
  C  C301  1  0.09365000  0.00000000  0.50000000  1
  C  C302  1  0.69720000  0.50000000  0.00000000  1
  C  C303  1  0.59365000  0.50000000  0.00000000  1
  C  C304  1  0.50000000  1.00000000  0.68260000  1
  C  C305  1  0.50000000  1.00000000  0.74530000  1
  C  C306  1  0.50000000  0.00000000  0.85970000  1
  C  C307  1  0.50000000  0.00000000  0.92090000  1
  C  C308  1  0.50000000  0.00000000  0.96990000  1
  C  C309  1  0.50000000  0.00000000  0.31740000  1
  C  C310  1  0.50000000  0.00000000  0.25470000  1
  C  C311  1  0.50000000  0.00000000  0.14030000  1
  C  C312  1  0.50000000  0.00000000  0.07910000  1
  C  C313  1  0.50000000  0.00000000  0.03010000  1
  C  C314  1  1.00000000  0.31740000  0.00000000  1
  C  C315  1  1.00000000  0.25470000  0.00000000  1
  C  C316  1  1.00000000  0.14030000  0.00000000  1
  C  C317  1  0.00000000  0.07910000  0.00000000  1
  C  C318  1  1.00000000  0.03010000  0.00000000  1
  C  C319  1  0.00000000  0.68260000  0.00000000  1
  C  C320  1  1.00000000  0.74530000  0.00000000  1
  C  C321  1  1.00000000  0.85970000  0.00000000  1
  C  C322  1  1.00000000  0.92090000  0.00000000  1
  C  C323  1  1.00000000  0.96990000  0.00000000  1
  O  O324  1  0.58860000  0.14800000  0.55480000  1
  O  O325  1  0.66580000  0.08060000  0.60330000  1
  O  O326  1  0.58860000  0.85200000  0.44520000  1
  O  O327  1  0.66580000  0.91940000  0.39670000  1
  O  O328  1  0.08860000  0.44520000  0.14800000  1
  O  O329  1  0.16580000  0.39670000  0.08060000  1
  O  O330  1  0.08860000  0.55480000  0.85200000  1
  O  O331  1  0.16580000  0.60330000  0.91940000  1
  O  O332  1  0.41140000  0.85200000  0.55480000  1
  O  O333  1  0.33420000  0.91940000  0.60330000  1
  O  O334  1  0.41140000  0.14800000  0.44520000  1
  O  O335  1  0.33420000  0.08060000  0.39670000  1
  O  O336  1  0.91140000  0.55480000  0.14800000  1
  O  O337  1  0.83420000  0.60330000  0.08060000  1
  O  O338  1  0.91140000  0.44520000  0.85200000  1
  O  O339  1  0.83420000  0.39670000  0.91940000  1
  O  O340  1  0.41140000  0.85200000  0.44520000  1
  O  O341  1  0.33420000  0.91940000  0.39670000  1
  O  O342  1  0.41140000  0.14800000  0.55480000  1
  O  O343  1  0.33420000  0.08060000  0.60330000  1
  O  O344  1  0.91140000  0.55480000  0.85200000  1
  O  O345  1  0.83420000  0.60330000  0.91940000  1
  O  O346  1  0.91140000  0.44520000  0.14800000  1
  O  O347  1  0.83420000  0.39670000  0.08060000  1
  O  O348  1  0.58860000  0.14800000  0.44520000  1
  O  O349  1  0.66580000  0.08060000  0.39670000  1
  O  O350  1  0.58860000  0.85200000  0.55480000  1
  O  O351  1  0.66580000  0.91940000  0.60330000  1
  O  O352  1  0.08860000  0.44520000  0.85200000  1
  O  O353  1  0.16580000  0.39670000  0.91940000  1
  O  O354  1  0.08860000  0.55480000  0.14800000  1
  O  O355  1  0.16580000  0.60330000  0.08060000  1
  O  O356  1  0.77430000  0.00000000  0.54960000  1
  O  O357  1  0.59940000  0.00000000  0.66120000  1
  O  O358  1  0.77430000  0.00000000  0.45040000  1
  O  O359  1  0.59940000  0.00000000  0.33880000  1
  O  O360  1  0.27430000  0.45040000  0.00000000  1
  O  O361  1  0.09940000  0.33880000  0.00000000  1
  O  O362  1  0.27430000  0.54960000  0.00000000  1
  O  O363  1  0.09940000  0.66120000  0.00000000  1
  O  O364  1  0.22570000  0.00000000  0.54960000  1
  O  O365  1  0.40060000  0.00000000  0.66120000  1
  O  O366  1  0.22570000  0.00000000  0.45040000  1
  O  O367  1  0.40060000  0.00000000  0.33880000  1
  O  O368  1  0.72570000  0.54960000  0.00000000  1
  O  O369  1  0.90060000  0.66120000  0.00000000  1
  O  O370  1  0.72570000  0.45040000  0.00000000  1
  O  O371  1  0.90060000  0.33880000  0.00000000  1
  O  O372  1  0.38200000  0.05020000  0.50000000  1
  O  O373  1  0.38200000  0.94980000  0.50000000  1
  O  O374  1  0.88200000  0.50000000  0.05020000  1
  O  O375  1  0.88200000  0.50000000  0.94980000  1
  O  O376  1  0.61800000  0.94980000  0.50000000  1
  O  O377  1  0.61800000  0.05020000  0.50000000  1
  O  O378  1  0.11800000  0.50000000  0.05020000  1
  O  O379  1  0.11800000  0.50000000  0.94980000  1
  O  O380  1  0.50000000  0.04990000  0.42890000  1
  O  O381  1  0.50000000  0.95010000  0.57110000  1
  O  O382  1  1.00000000  0.57110000  0.04990000  1
  O  O383  1  0.00000000  0.42890000  0.95010000  1
  O  O384  1  0.50000000  0.95010000  0.42890000  1
  O  O385  1  0.50000000  0.04990000  0.57110000  1
  O  O386  1  1.00000000  0.42890000  0.04990000  1
  O  O387  1  1.00000000  0.57110000  0.95010000  1
