# generated using pymatgen
data_Zr3H39C57O16
_symmetry_space_group_name_H-M   'P 1'
_cell_length_a   16.81700000
_cell_length_b   23.90000000
_cell_length_c   23.90000000
_cell_angle_alpha   90.00000000
_cell_angle_beta   90.00000000
_cell_angle_gamma   90.00000000
_symmetry_Int_Tables_number   1
_chemical_formula_structural   Zr3H39C57O16
_chemical_formula_sum   'Zr12 H156 C228 O64'
_cell_volume   9606.03857000
_cell_formula_units_Z   4
loop_
 _symmetry_equiv_pos_site_id
 _symmetry_equiv_pos_as_xyz
  1  'x, y, z'
loop_
 _atom_site_type_symbol
 _atom_site_label
 _atom_site_symmetry_multiplicity
 _atom_site_fract_x
 _atom_site_fract_y
 _atom_site_fract_z
 _atom_site_occupancy
  Zr  Zr0  1  0.00000000  0.10524000  0.50000000  1
  Zr  Zr1  1  0.00000000  0.89476000  0.50000000  1
  Zr  Zr2  1  0.50000000  0.50000000  0.10524000  1
  Zr  Zr3  1  0.50000000  0.50000000  0.89476000  1
  Zr  Zr4  1  0.10381000  0.00000000  0.42713000  1
  Zr  Zr5  1  0.10381000  0.00000000  0.57287000  1
  Zr  Zr6  1  0.60381000  0.57287000  0.00000000  1
  Zr  Zr7  1  0.60381000  0.42713000  0.00000000  1
  Zr  Zr8  1  0.89619000  0.00000000  0.42713000  1
  Zr  Zr9  1  0.89619000  0.00000000  0.57287000  1
  Zr  Zr10  1  0.39619000  0.42713000  0.00000000  1
  Zr  Zr11  1  0.39619000  0.57287000  0.00000000  1
  H  H12  1  0.23980000  0.12200000  0.32800000  1
  H  H13  1  0.29950000  0.18790000  0.27040000  1
  H  H14  1  0.09770000  0.24050000  0.39230000  1
  H  H15  1  0.10290000  0.33350000  0.36390000  1
  H  H16  1  0.12580000  0.34160000  0.29940000  1
  H  H17  1  0.19030000  0.35400000  0.34710000  1
  H  H18  1  0.12040000  0.05210000  0.15090000  1
  H  H19  1  0.12100000  0.02360000  0.24480000  1
  H  H20  1  0.23980000  0.87800000  0.67200000  1
  H  H21  1  0.29950000  0.81210000  0.72960000  1
  H  H22  1  0.09770000  0.75950000  0.60770000  1
  H  H23  1  0.10290000  0.66650000  0.63610000  1
  H  H24  1  0.12580000  0.65840000  0.70060000  1
  H  H25  1  0.19030000  0.64600000  0.65290000  1
  H  H26  1  0.12040000  0.94790000  0.84910000  1
  H  H27  1  0.12100000  0.97640000  0.75520000  1
  H  H28  1  0.73980000  0.67200000  0.12200000  1
  H  H29  1  0.79950000  0.72960000  0.18790000  1
  H  H30  1  0.59770000  0.60770000  0.24050000  1
  H  H31  1  0.60290000  0.63610000  0.33350000  1
  H  H32  1  0.62580000  0.70060000  0.34160000  1
  H  H33  1  0.69030000  0.65290000  0.35400000  1
  H  H34  1  0.69200000  0.83410000  0.05780000  1
  H  H35  1  0.64550000  0.88620000  0.08420000  1
  H  H36  1  0.66040000  0.88320000  0.01810000  1
  H  H37  1  0.62100000  0.75520000  0.02360000  1
  H  H38  1  0.73980000  0.32800000  0.87800000  1
  H  H39  1  0.79950000  0.27040000  0.81210000  1
  H  H40  1  0.59770000  0.39230000  0.75950000  1
  H  H41  1  0.60290000  0.36390000  0.66650000  1
  H  H42  1  0.62580000  0.29940000  0.65840000  1
  H  H43  1  0.69030000  0.34710000  0.64600000  1
  H  H44  1  0.69200000  0.16590000  0.94220000  1
  H  H45  1  0.64550000  0.11380000  0.91580000  1
  H  H46  1  0.66040000  0.11680000  0.98190000  1
  H  H47  1  0.62100000  0.24480000  0.97640000  1
  H  H48  1  0.76020000  0.87800000  0.32800000  1
  H  H49  1  0.70050000  0.81210000  0.27040000  1
  H  H50  1  0.90230000  0.75950000  0.39230000  1
  H  H51  1  0.89710000  0.66650000  0.36390000  1
  H  H52  1  0.87420000  0.65840000  0.29940000  1
  H  H53  1  0.80970000  0.64600000  0.34710000  1
  H  H54  1  0.87960000  0.94790000  0.15090000  1
  H  H55  1  0.87900000  0.97640000  0.24480000  1
  H  H56  1  0.76020000  0.12200000  0.67200000  1
  H  H57  1  0.70050000  0.18790000  0.72960000  1
  H  H58  1  0.90230000  0.24050000  0.60770000  1
  H  H59  1  0.89710000  0.33350000  0.63610000  1
  H  H60  1  0.87420000  0.34160000  0.70060000  1
  H  H61  1  0.80970000  0.35400000  0.65290000  1
  H  H62  1  0.87960000  0.05210000  0.84910000  1
  H  H63  1  0.87900000  0.02360000  0.75520000  1
  H  H64  1  0.26020000  0.32800000  0.12200000  1
  H  H65  1  0.20050000  0.27040000  0.18790000  1
  H  H66  1  0.40230000  0.39230000  0.24050000  1
  H  H67  1  0.39710000  0.36390000  0.33350000  1
  H  H68  1  0.37420000  0.29940000  0.34160000  1
  H  H69  1  0.30970000  0.34710000  0.35400000  1
  H  H70  1  0.30800000  0.16590000  0.05780000  1
  H  H71  1  0.35450000  0.11380000  0.08420000  1
  H  H72  1  0.33960000  0.11680000  0.01810000  1
  H  H73  1  0.37900000  0.24480000  0.02360000  1
  H  H74  1  0.26020000  0.67200000  0.87800000  1
  H  H75  1  0.20050000  0.72960000  0.81210000  1
  H  H76  1  0.40230000  0.60770000  0.75950000  1
  H  H77  1  0.39710000  0.63610000  0.66650000  1
  H  H78  1  0.37420000  0.70060000  0.65840000  1
  H  H79  1  0.30970000  0.65290000  0.64600000  1
  H  H80  1  0.30800000  0.83410000  0.94220000  1
  H  H81  1  0.35450000  0.88620000  0.91580000  1
  H  H82  1  0.33960000  0.88320000  0.98190000  1
  H  H83  1  0.37900000  0.75520000  0.97640000  1
  H  H84  1  0.76020000  0.87800000  0.67200000  1
  H  H85  1  0.70050000  0.81210000  0.72960000  1
  H  H86  1  0.90230000  0.75950000  0.60770000  1
  H  H87  1  0.89710000  0.66650000  0.63610000  1
  H  H88  1  0.87420000  0.65840000  0.70060000  1
  H  H89  1  0.80970000  0.64600000  0.65290000  1
  H  H90  1  0.80800000  0.94220000  0.83410000  1
  H  H91  1  0.85450000  0.91580000  0.88620000  1
  H  H92  1  0.83960000  0.98190000  0.88320000  1
  H  H93  1  0.87900000  0.97640000  0.75520000  1
  H  H94  1  0.76020000  0.12200000  0.32800000  1
  H  H95  1  0.70050000  0.18790000  0.27040000  1
  H  H96  1  0.90230000  0.24050000  0.39230000  1
  H  H97  1  0.89710000  0.33350000  0.36390000  1
  H  H98  1  0.87420000  0.34160000  0.29940000  1
  H  H99  1  0.80970000  0.35400000  0.34710000  1
  H  H100  1  0.80800000  0.05780000  0.16590000  1
  H  H101  1  0.85450000  0.08420000  0.11380000  1
  H  H102  1  0.83960000  0.01810000  0.11680000  1
  H  H103  1  0.87900000  0.02360000  0.24480000  1
  H  H104  1  0.26020000  0.32800000  0.87800000  1
  H  H105  1  0.20050000  0.27040000  0.81210000  1
  H  H106  1  0.40230000  0.39230000  0.75950000  1
  H  H107  1  0.39710000  0.36390000  0.66650000  1
  H  H108  1  0.37420000  0.29940000  0.65840000  1
  H  H109  1  0.30970000  0.34710000  0.64600000  1
  H  H110  1  0.37960000  0.15090000  0.94790000  1
  H  H111  1  0.37900000  0.24480000  0.97640000  1
  H  H112  1  0.26020000  0.67200000  0.12200000  1
  H  H113  1  0.20050000  0.72960000  0.18790000  1
  H  H114  1  0.40230000  0.60770000  0.24050000  1
  H  H115  1  0.39710000  0.63610000  0.33350000  1
  H  H116  1  0.37420000  0.70060000  0.34160000  1
  H  H117  1  0.30970000  0.65290000  0.35400000  1
  H  H118  1  0.37960000  0.84910000  0.05210000  1
  H  H119  1  0.37900000  0.75520000  0.02360000  1
  H  H120  1  0.23980000  0.12200000  0.67200000  1
  H  H121  1  0.29950000  0.18790000  0.72960000  1
  H  H122  1  0.09770000  0.24050000  0.60770000  1
  H  H123  1  0.10290000  0.33350000  0.63610000  1
  H  H124  1  0.12580000  0.34160000  0.70060000  1
  H  H125  1  0.19030000  0.35400000  0.65290000  1
  H  H126  1  0.19200000  0.05780000  0.83410000  1
  H  H127  1  0.14550000  0.08420000  0.88620000  1
  H  H128  1  0.16040000  0.01810000  0.88320000  1
  H  H129  1  0.12100000  0.02360000  0.75520000  1
  H  H130  1  0.23980000  0.87800000  0.32800000  1
  H  H131  1  0.29950000  0.81210000  0.27040000  1
  H  H132  1  0.09770000  0.75950000  0.39230000  1
  H  H133  1  0.10290000  0.66650000  0.36390000  1
  H  H134  1  0.12580000  0.65840000  0.29940000  1
  H  H135  1  0.19030000  0.64600000  0.34710000  1
  H  H136  1  0.19200000  0.94220000  0.16590000  1
  H  H137  1  0.14550000  0.91580000  0.11380000  1
  H  H138  1  0.16040000  0.98190000  0.11680000  1
  H  H139  1  0.12100000  0.97640000  0.24480000  1
  H  H140  1  0.73980000  0.67200000  0.87800000  1
  H  H141  1  0.79950000  0.72960000  0.81210000  1
  H  H142  1  0.59770000  0.60770000  0.75950000  1
  H  H143  1  0.60290000  0.63610000  0.66650000  1
  H  H144  1  0.62580000  0.70060000  0.65840000  1
  H  H145  1  0.69030000  0.65290000  0.64600000  1
  H  H146  1  0.62040000  0.84910000  0.94790000  1
  H  H147  1  0.62100000  0.75520000  0.97640000  1
  H  H148  1  0.73980000  0.32800000  0.12200000  1
  H  H149  1  0.79950000  0.27040000  0.18790000  1
  H  H150  1  0.59770000  0.39230000  0.24050000  1
  H  H151  1  0.60290000  0.36390000  0.33350000  1
  H  H152  1  0.62580000  0.29940000  0.34160000  1
  H  H153  1  0.69030000  0.34710000  0.35400000  1
  H  H154  1  0.62040000  0.15090000  0.05210000  1
  H  H155  1  0.62100000  0.24480000  0.02360000  1
  H  H156  1  0.63940000  0.00000000  0.40520000  1
  H  H157  1  0.31790000  0.00000000  0.58390000  1
  H  H158  1  0.46890000  0.00000000  0.61000000  1
  H  H159  1  0.36780000  0.00000000  0.42660000  1
  H  H160  1  0.60230000  0.00000000  0.57350000  1
  H  H161  1  0.13940000  0.59480000  0.00000000  1
  H  H162  1  0.81790000  0.41610000  0.00000000  1
  H  H163  1  0.96890000  0.39000000  0.00000000  1
  H  H164  1  0.86780000  0.57340000  0.00000000  1
  H  H165  1  0.10230000  0.42650000  0.00000000  1
  H  H166  1  0.50000000  0.00000000  0.39020000  1
  H  H167  1  0.00000000  0.60980000  0.00000000  1
  C  C168  1  0.12620000  0.12950000  0.40290000  1
  C  C169  1  0.16270000  0.17420000  0.36620000  1
  C  C170  1  0.22260000  0.15980000  0.32970000  1
  C  C171  1  0.25820000  0.19900000  0.29520000  1
  C  C172  1  0.23380000  0.25480000  0.29660000  1
  C  C173  1  0.17310000  0.26980000  0.33340000  1
  C  C174  1  0.13890000  0.22970000  0.36740000  1
  C  C175  1  0.14560000  0.33000000  0.33620000  1
  C  C176  1  0.07151000  0.02860000  0.22540000  1
  C  C177  1  0.07158000  0.04460000  0.16940000  1
  C  C178  1  0.12620000  0.87050000  0.59710000  1
  C  C179  1  0.16270000  0.82580000  0.63380000  1
  C  C180  1  0.22260000  0.84020000  0.67030000  1
  C  C181  1  0.25820000  0.80100000  0.70480000  1
  C  C182  1  0.23380000  0.74520000  0.70340000  1
  C  C183  1  0.17310000  0.73020000  0.66666667  1
  C  C184  1  0.13890000  0.77030000  0.63260000  1
  C  C185  1  0.14560000  0.67000000  0.66380000  1
  C  C186  1  0.07151000  0.97140000  0.77460000  1
  C  C187  1  0.07158000  0.95540000  0.83060000  1
  C  C188  1  0.62620000  0.59710000  0.12950000  1
  C  C189  1  0.66270000  0.63380000  0.17420000  1
  C  C190  1  0.72260000  0.67030000  0.15980000  1
  C  C191  1  0.75820000  0.70480000  0.19900000  1
  C  C192  1  0.73380000  0.70340000  0.25480000  1
  C  C193  1  0.67310000  0.66666667  0.26980000  1
  C  C194  1  0.63890000  0.63260000  0.22970000  1
  C  C195  1  0.64560000  0.66380000  0.33000000  1
  C  C196  1  0.57151000  0.77460000  0.02860000  1
  C  C197  1  0.57158000  0.83060000  0.04460000  1
  C  C198  1  0.64910000  0.86120000  0.05200000  1
  C  C199  1  0.62620000  0.40290000  0.87050000  1
  C  C200  1  0.66270000  0.36620000  0.82580000  1
  C  C201  1  0.72260000  0.32970000  0.84020000  1
  C  C202  1  0.75820000  0.29520000  0.80100000  1
  C  C203  1  0.73380000  0.29660000  0.74520000  1
  C  C204  1  0.67310000  0.33340000  0.73020000  1
  C  C205  1  0.63890000  0.36740000  0.77030000  1
  C  C206  1  0.64560000  0.33620000  0.67000000  1
  C  C207  1  0.57151000  0.22540000  0.97140000  1
  C  C208  1  0.57158000  0.16940000  0.95540000  1
  C  C209  1  0.64910000  0.13880000  0.94800000  1
  C  C210  1  0.87380000  0.87050000  0.40290000  1
  C  C211  1  0.83730000  0.82580000  0.36620000  1
  C  C212  1  0.77740000  0.84020000  0.32970000  1
  C  C213  1  0.74180000  0.80100000  0.29520000  1
  C  C214  1  0.76620000  0.74520000  0.29660000  1
  C  C215  1  0.82690000  0.73020000  0.33340000  1
  C  C216  1  0.86110000  0.77030000  0.36740000  1
  C  C217  1  0.85440000  0.67000000  0.33620000  1
  C  C218  1  0.92849000  0.97140000  0.22540000  1
  C  C219  1  0.92842000  0.95540000  0.16940000  1
  C  C220  1  0.87380000  0.12950000  0.59710000  1
  C  C221  1  0.83730000  0.17420000  0.63380000  1
  C  C222  1  0.77740000  0.15980000  0.67030000  1
  C  C223  1  0.74180000  0.19900000  0.70480000  1
  C  C224  1  0.76620000  0.25480000  0.70340000  1
  C  C225  1  0.82690000  0.26980000  0.66666667  1
  C  C226  1  0.86110000  0.22970000  0.63260000  1
  C  C227  1  0.85440000  0.33000000  0.66380000  1
  C  C228  1  0.92849000  0.02860000  0.77460000  1
  C  C229  1  0.92842000  0.04460000  0.83060000  1
  C  C230  1  0.37380000  0.40290000  0.12950000  1
  C  C231  1  0.33730000  0.36620000  0.17420000  1
  C  C232  1  0.27740000  0.32970000  0.15980000  1
  C  C233  1  0.24180000  0.29520000  0.19900000  1
  C  C234  1  0.26620000  0.29660000  0.25480000  1
  C  C235  1  0.32690000  0.33340000  0.26980000  1
  C  C236  1  0.36110000  0.36740000  0.22970000  1
  C  C237  1  0.35440000  0.33620000  0.33000000  1
  C  C238  1  0.42849000  0.22540000  0.02860000  1
  C  C239  1  0.42842000  0.16940000  0.04460000  1
  C  C240  1  0.35090000  0.13880000  0.05200000  1
  C  C241  1  0.37380000  0.59710000  0.87050000  1
  C  C242  1  0.33730000  0.63380000  0.82580000  1
  C  C243  1  0.27740000  0.67030000  0.84020000  1
  C  C244  1  0.24180000  0.70480000  0.80100000  1
  C  C245  1  0.26620000  0.70340000  0.74520000  1
  C  C246  1  0.32690000  0.66666667  0.73020000  1
  C  C247  1  0.36110000  0.63260000  0.77030000  1
  C  C248  1  0.35440000  0.66380000  0.67000000  1
  C  C249  1  0.42849000  0.77460000  0.97140000  1
  C  C250  1  0.42842000  0.83060000  0.95540000  1
  C  C251  1  0.35090000  0.86120000  0.94800000  1
  C  C252  1  0.87380000  0.87050000  0.59710000  1
  C  C253  1  0.83730000  0.82580000  0.63380000  1
  C  C254  1  0.77740000  0.84020000  0.67030000  1
  C  C255  1  0.74180000  0.80100000  0.70480000  1
  C  C256  1  0.76620000  0.74520000  0.70340000  1
  C  C257  1  0.82690000  0.73020000  0.66666667  1
  C  C258  1  0.86110000  0.77030000  0.63260000  1
  C  C259  1  0.85440000  0.67000000  0.66380000  1
  C  C260  1  0.92849000  0.97140000  0.77460000  1
  C  C261  1  0.92842000  0.95540000  0.83060000  1
  C  C262  1  0.85090000  0.94800000  0.86120000  1
  C  C263  1  0.87380000  0.12950000  0.40290000  1
  C  C264  1  0.83730000  0.17420000  0.36620000  1
  C  C265  1  0.77740000  0.15980000  0.32970000  1
  C  C266  1  0.74180000  0.19900000  0.29520000  1
  C  C267  1  0.76620000  0.25480000  0.29660000  1
  C  C268  1  0.82690000  0.26980000  0.33340000  1
  C  C269  1  0.86110000  0.22970000  0.36740000  1
  C  C270  1  0.85440000  0.33000000  0.33620000  1
  C  C271  1  0.92849000  0.02860000  0.22540000  1
  C  C272  1  0.92842000  0.04460000  0.16940000  1
  C  C273  1  0.85090000  0.05200000  0.13880000  1
  C  C274  1  0.37380000  0.40290000  0.87050000  1
  C  C275  1  0.33730000  0.36620000  0.82580000  1
  C  C276  1  0.27740000  0.32970000  0.84020000  1
  C  C277  1  0.24180000  0.29520000  0.80100000  1
  C  C278  1  0.26620000  0.29660000  0.74520000  1
  C  C279  1  0.32690000  0.33340000  0.73020000  1
  C  C280  1  0.36110000  0.36740000  0.77030000  1
  C  C281  1  0.35440000  0.33620000  0.67000000  1
  C  C282  1  0.42849000  0.22540000  0.97140000  1
  C  C283  1  0.42842000  0.16940000  0.95540000  1
  C  C284  1  0.37380000  0.59710000  0.12950000  1
  C  C285  1  0.33730000  0.63380000  0.17420000  1
  C  C286  1  0.27740000  0.67030000  0.15980000  1
  C  C287  1  0.24180000  0.70480000  0.19900000  1
  C  C288  1  0.26620000  0.70340000  0.25480000  1
  C  C289  1  0.32690000  0.66666667  0.26980000  1
  C  C290  1  0.36110000  0.63260000  0.22970000  1
  C  C291  1  0.35440000  0.66380000  0.33000000  1
  C  C292  1  0.42849000  0.77460000  0.02860000  1
  C  C293  1  0.42842000  0.83060000  0.04460000  1
  C  C294  1  0.12620000  0.12950000  0.59710000  1
  C  C295  1  0.16270000  0.17420000  0.63380000  1
  C  C296  1  0.22260000  0.15980000  0.67030000  1
  C  C297  1  0.25820000  0.19900000  0.70480000  1
  C  C298  1  0.23380000  0.25480000  0.70340000  1
  C  C299  1  0.17310000  0.26980000  0.66666667  1
  C  C300  1  0.13890000  0.22970000  0.63260000  1
  C  C301  1  0.14560000  0.33000000  0.66380000  1
  C  C302  1  0.07151000  0.02860000  0.77460000  1
  C  C303  1  0.07158000  0.04460000  0.83060000  1
  C  C304  1  0.14910000  0.05200000  0.86120000  1
  C  C305  1  0.12620000  0.87050000  0.40290000  1
  C  C306  1  0.16270000  0.82580000  0.36620000  1
  C  C307  1  0.22260000  0.84020000  0.32970000  1
  C  C308  1  0.25820000  0.80100000  0.29520000  1
  C  C309  1  0.23380000  0.74520000  0.29660000  1
  C  C310  1  0.17310000  0.73020000  0.33340000  1
  C  C311  1  0.13890000  0.77030000  0.36740000  1
  C  C312  1  0.14560000  0.67000000  0.33620000  1
  C  C313  1  0.07151000  0.97140000  0.22540000  1
  C  C314  1  0.07158000  0.95540000  0.16940000  1
  C  C315  1  0.14910000  0.94800000  0.13880000  1
  C  C316  1  0.62620000  0.59710000  0.87050000  1
  C  C317  1  0.66270000  0.63380000  0.82580000  1
  C  C318  1  0.72260000  0.67030000  0.84020000  1
  C  C319  1  0.75820000  0.70480000  0.80100000  1
  C  C320  1  0.73380000  0.70340000  0.74520000  1
  C  C321  1  0.67310000  0.66666667  0.73020000  1
  C  C322  1  0.63890000  0.63260000  0.77030000  1
  C  C323  1  0.64560000  0.66380000  0.67000000  1
  C  C324  1  0.57151000  0.77460000  0.97140000  1
  C  C325  1  0.57158000  0.83060000  0.95540000  1
  C  C326  1  0.62620000  0.40290000  0.12950000  1
  C  C327  1  0.66270000  0.36620000  0.17420000  1
  C  C328  1  0.72260000  0.32970000  0.15980000  1
  C  C329  1  0.75820000  0.29520000  0.19900000  1
  C  C330  1  0.73380000  0.29660000  0.25480000  1
  C  C331  1  0.67310000  0.33340000  0.26980000  1
  C  C332  1  0.63890000  0.36740000  0.22970000  1
  C  C333  1  0.64560000  0.33620000  0.33000000  1
  C  C334  1  0.57151000  0.22540000  0.02860000  1
  C  C335  1  0.57158000  0.16940000  0.04460000  1
  C  C336  1  0.33663000  0.00000000  0.50940000  1
  C  C337  1  0.36652000  0.00000000  0.56360000  1
  C  C338  1  0.44822000  0.00000000  0.57250000  1
  C  C339  1  0.47011000  0.00000000  0.47290000  1
  C  C340  1  0.38841000  0.00000000  0.46400000  1
  C  C341  1  0.52190000  0.00000000  0.42760000  1
  C  C342  1  0.60360000  0.00000000  0.43650000  1
  C  C343  1  0.63350000  0.00000000  0.49070000  1
  C  C344  1  0.58170000  0.00000000  0.53610000  1
  C  C345  1  0.83663000  0.49060000  0.00000000  1
  C  C346  1  0.86652000  0.43640000  0.00000000  1
  C  C347  1  0.94822000  0.42750000  0.00000000  1
  C  C348  1  0.97011000  0.52710000  0.00000000  1
  C  C349  1  0.88841000  0.53600000  0.00000000  1
  C  C350  1  0.02190000  0.57240000  0.00000000  1
  C  C351  1  0.10360000  0.56350000  0.00000000  1
  C  C352  1  0.13350000  0.50930000  0.00000000  1
  C  C353  1  0.08170000  0.46390000  0.00000000  1
  C  C354  1  0.00000000  0.01740000  0.25240000  1
  C  C355  1  0.00000000  0.04950000  0.14070000  1
  C  C356  1  0.00000000  0.06210000  0.07890000  1
  C  C357  1  0.00000000  0.07200000  0.02980000  1
  C  C358  1  0.00000000  0.98260000  0.74760000  1
  C  C359  1  0.00000000  0.95050000  0.85930000  1
  C  C360  1  1.00000000  0.93790000  0.92110000  1
  C  C361  1  1.00000000  0.92800000  0.97020000  1
  C  C362  1  0.50000000  0.74760000  0.01740000  1
  C  C363  1  0.50000000  0.85930000  0.04950000  1
  C  C364  1  0.50000000  0.92110000  0.06210000  1
  C  C365  1  0.50000000  0.97020000  0.07200000  1
  C  C366  1  0.50000000  0.25240000  0.98260000  1
  C  C367  1  0.50000000  0.14070000  0.95050000  1
  C  C368  1  0.50000000  0.07890000  0.93790000  1
  C  C369  1  0.50000000  0.02980000  0.92800000  1
  C  C370  1  0.00000000  0.98260000  0.25240000  1
  C  C371  1  0.00000000  0.95050000  0.14070000  1
  C  C372  1  1.00000000  0.93790000  0.07890000  1
  C  C373  1  1.00000000  0.92800000  0.02980000  1
  C  C374  1  1.00000000  0.01740000  0.74760000  1
  C  C375  1  0.00000000  0.04950000  0.85930000  1
  C  C376  1  0.00000000  0.06210000  0.92110000  1
  C  C377  1  0.00000000  0.07200000  0.97020000  1
  C  C378  1  0.50000000  0.25240000  0.01740000  1
  C  C379  1  0.50000000  0.14070000  0.04950000  1
  C  C380  1  0.50000000  0.07890000  0.06210000  1
  C  C381  1  0.50000000  0.02980000  0.07200000  1
  C  C382  1  0.50000000  0.74760000  0.98260000  1
  C  C383  1  0.50000000  0.85930000  0.95050000  1
  C  C384  1  0.50000000  0.92110000  0.93790000  1
  C  C385  1  0.50000000  0.97020000  0.92800000  1
  C  C386  1  0.24770000  0.00000000  0.50000000  1
  C  C387  1  0.72220000  0.00000000  0.50000000  1
  C  C388  1  0.74770000  0.50000000  0.00000000  1
  C  C389  1  0.22220000  0.50000000  0.00000000  1
  C  C390  1  0.50000000  0.00000000  0.52720000  1
  C  C391  1  0.00000000  0.47280000  0.00000000  1
  C  C392  1  0.00000000  0.00000000  0.31300000  1
  C  C393  1  0.00000000  0.00000000  0.68700000  1
  C  C394  1  0.50000000  0.68700000  0.00000000  1
  C  C395  1  0.50000000  0.31300000  0.00000000  1
  O  O396  1  0.08120000  0.15080000  0.44090000  1
  O  O397  1  0.15030000  0.08010000  0.39050000  1
  O  O398  1  0.08120000  0.84920000  0.55910000  1
  O  O399  1  0.15030000  0.91990000  0.60950000  1
  O  O400  1  0.58120000  0.55910000  0.15080000  1
  O  O401  1  0.65030000  0.60950000  0.08010000  1
  O  O402  1  0.58120000  0.44090000  0.84920000  1
  O  O403  1  0.65030000  0.39050000  0.91990000  1
  O  O404  1  0.91880000  0.84920000  0.44090000  1
  O  O405  1  0.84970000  0.91990000  0.39050000  1
  O  O406  1  0.91880000  0.15080000  0.55910000  1
  O  O407  1  0.84970000  0.08010000  0.60950000  1
  O  O408  1  0.41880000  0.44090000  0.15080000  1
  O  O409  1  0.34970000  0.39050000  0.08010000  1
  O  O410  1  0.41880000  0.55910000  0.84920000  1
  O  O411  1  0.34970000  0.60950000  0.91990000  1
  O  O412  1  0.91880000  0.84920000  0.55910000  1
  O  O413  1  0.84970000  0.91990000  0.60950000  1
  O  O414  1  0.91880000  0.15080000  0.44090000  1
  O  O415  1  0.84970000  0.08010000  0.39050000  1
  O  O416  1  0.41880000  0.44090000  0.84920000  1
  O  O417  1  0.34970000  0.39050000  0.91990000  1
  O  O418  1  0.41880000  0.55910000  0.15080000  1
  O  O419  1  0.34970000  0.60950000  0.08010000  1
  O  O420  1  0.08120000  0.15080000  0.55910000  1
  O  O421  1  0.15030000  0.08010000  0.60950000  1
  O  O422  1  0.08120000  0.84920000  0.44090000  1
  O  O423  1  0.15030000  0.91990000  0.39050000  1
  O  O424  1  0.58120000  0.55910000  0.84920000  1
  O  O425  1  0.65030000  0.60950000  0.91990000  1
  O  O426  1  0.58120000  0.44090000  0.15080000  1
  O  O427  1  0.65030000  0.39050000  0.08010000  1
  O  O428  1  0.22710000  0.00000000  0.44870000  1
  O  O429  1  0.06450000  0.00000000  0.33780000  1
  O  O430  1  0.22710000  0.00000000  0.55130000  1
  O  O431  1  0.06450000  0.00000000  0.66220000  1
  O  O432  1  0.72710000  0.55130000  0.00000000  1
  O  O433  1  0.56450000  0.66220000  0.00000000  1
  O  O434  1  0.72710000  0.44870000  0.00000000  1
  O  O435  1  0.56450000  0.33780000  0.00000000  1
  O  O436  1  0.77290000  0.00000000  0.44870000  1
  O  O437  1  0.93550000  0.00000000  0.33780000  1
  O  O438  1  0.77290000  0.00000000  0.55130000  1
  O  O439  1  0.93550000  0.00000000  0.66220000  1
  O  O440  1  0.27290000  0.44870000  0.00000000  1
  O  O441  1  0.43550000  0.33780000  0.00000000  1
  O  O442  1  0.27290000  0.55130000  0.00000000  1
  O  O443  1  0.43550000  0.66220000  0.00000000  1
  O  O444  1  0.10680000  0.05340000  0.50000000  1
  O  O445  1  0.10680000  0.94660000  0.50000000  1
  O  O446  1  0.60680000  0.50000000  0.05340000  1
  O  O447  1  0.60680000  0.50000000  0.94660000  1
  O  O448  1  0.89320000  0.94660000  0.50000000  1
  O  O449  1  0.89320000  0.05340000  0.50000000  1
  O  O450  1  0.39320000  0.50000000  0.05340000  1
  O  O451  1  0.39320000  0.50000000  0.94660000  1
  O  O452  1  0.00000000  0.05300000  0.42760000  1
  O  O453  1  0.00000000  0.94700000  0.57240000  1
  O  O454  1  0.50000000  0.57240000  0.05300000  1
  O  O455  1  0.50000000  0.42760000  0.94700000  1
  O  O456  1  1.00000000  0.94700000  0.42760000  1
  O  O457  1  0.00000000  0.05300000  0.57240000  1
  O  O458  1  0.50000000  0.42760000  0.05300000  1
  O  O459  1  0.50000000  0.57240000  0.94700000  1
