# generated using pymatgen
data_Zr6H62(C29O10)3
_symmetry_space_group_name_H-M   'P 1'
_cell_length_a   16.82400000
_cell_length_b   33.50500000
_cell_length_c   33.50500000
_cell_angle_alpha   90.00000000
_cell_angle_beta   90.00000000
_cell_angle_gamma   90.00000000
_symmetry_Int_Tables_number   1
_chemical_formula_structural   Zr6H62(C29O10)3
_chemical_formula_sum   'Zr24 H248 C348 O120'
_cell_volume   18886.37046060
_cell_formula_units_Z   4
loop_
 _symmetry_equiv_pos_site_id
 _symmetry_equiv_pos_as_xyz
  1  'x, y, z'
loop_
 _atom_site_type_symbol
 _atom_site_label
 _atom_site_symmetry_multiplicity
 _atom_site_fract_x
 _atom_site_fract_y
 _atom_site_fract_z
 _atom_site_occupancy
  Zr  Zr0  1  0.00000000  0.69361000  0.79805000  1
  Zr  Zr1  1  0.00000000  0.30639000  0.20195000  1
  Zr  Zr2  1  0.50000000  0.70195000  0.19361000  1
  Zr  Zr3  1  0.50000000  0.29805000  0.80639000  1
  Zr  Zr4  1  0.50000000  0.80639000  0.29805000  1
  Zr  Zr5  1  0.50000000  0.19361000  0.70195000  1
  Zr  Zr6  1  0.00000000  0.79805000  0.69361000  1
  Zr  Zr7  1  0.00000000  0.20195000  0.30639000  1
  Zr  Zr8  1  0.10437000  0.78212000  0.78212000  1
  Zr  Zr9  1  0.10389000  0.70871000  0.70871000  1
  Zr  Zr10  1  0.10437000  0.21788000  0.21788000  1
  Zr  Zr11  1  0.10389000  0.29129000  0.29129000  1
  Zr  Zr12  1  0.60437000  0.71788000  0.28212000  1
  Zr  Zr13  1  0.60389000  0.79129000  0.20871000  1
  Zr  Zr14  1  0.60437000  0.28212000  0.71788000  1
  Zr  Zr15  1  0.60389000  0.20871000  0.79129000  1
  Zr  Zr16  1  0.39563000  0.71788000  0.28212000  1
  Zr  Zr17  1  0.39611000  0.79129000  0.20871000  1
  Zr  Zr18  1  0.39563000  0.28212000  0.71788000  1
  Zr  Zr19  1  0.39611000  0.20871000  0.79129000  1
  Zr  Zr20  1  0.89563000  0.78212000  0.78212000  1
  Zr  Zr21  1  0.89611000  0.70871000  0.70871000  1
  Zr  Zr22  1  0.89563000  0.21788000  0.21788000  1
  Zr  Zr23  1  0.89611000  0.29129000  0.29129000  1
  H  H24  1  0.24110000  0.77070000  0.89190000  1
  H  H25  1  0.29510000  0.76860000  0.95630000  1
  H  H26  1  0.09730000  0.67750000  0.91920000  1
  H  H27  1  0.16420000  0.66960000  0.02070000  1
  H  H28  1  0.14400000  0.63860000  0.98580000  1
  H  H29  1  0.07960000  0.67120000  0.99900000  1
  H  H30  1  0.24860000  0.77520000  0.09790000  1
  H  H31  1  0.19680000  0.76990000  0.03330000  1
  H  H32  1  0.39910000  0.68350000  0.07510000  1
  H  H33  1  0.33230000  0.66840000  0.97450000  1
  H  H34  1  0.35060000  0.63990000  0.01180000  1
  H  H35  1  0.41660000  0.67070000  0.99650000  1
  H  H36  1  0.04660000  0.59010000  0.46280000  1
  H  H37  1  0.24110000  0.22930000  0.10810000  1
  H  H38  1  0.29510000  0.23140000  0.04370000  1
  H  H39  1  0.09730000  0.32250000  0.08080000  1
  H  H40  1  0.16420000  0.33040000  0.97930000  1
  H  H41  1  0.14400000  0.36140000  0.01420000  1
  H  H42  1  0.07960000  0.32880000  0.00100000  1
  H  H43  1  0.24860000  0.22480000  0.90210000  1
  H  H44  1  0.19680000  0.23010000  0.96670000  1
  H  H45  1  0.39910000  0.31650000  0.92490000  1
  H  H46  1  0.33230000  0.33160000  0.02550000  1
  H  H47  1  0.35060000  0.36010000  0.98820000  1
  H  H48  1  0.41660000  0.32930000  0.00350000  1
  H  H49  1  0.04660000  0.40990000  0.53720000  1
  H  H50  1  0.74110000  0.60810000  0.27070000  1
  H  H51  1  0.79510000  0.54370000  0.26860000  1
  H  H52  1  0.59730000  0.58080000  0.17750000  1
  H  H53  1  0.66420000  0.47930000  0.16960000  1
  H  H54  1  0.64400000  0.51420000  0.13860000  1
  H  H55  1  0.57960000  0.50100000  0.17120000  1
  H  H56  1  0.74860000  0.40210000  0.27520000  1
  H  H57  1  0.69680000  0.46670000  0.26990000  1
  H  H58  1  0.89910000  0.42490000  0.18350000  1
  H  H59  1  0.83230000  0.52550000  0.16840000  1
  H  H60  1  0.85060000  0.48820000  0.13990000  1
  H  H61  1  0.91660000  0.50350000  0.17070000  1
  H  H62  1  0.54660000  0.03720000  0.09010000  1
  H  H63  1  0.74110000  0.39190000  0.72930000  1
  H  H64  1  0.79510000  0.45630000  0.73140000  1
  H  H65  1  0.59730000  0.41920000  0.82250000  1
  H  H66  1  0.66420000  0.52070000  0.83040000  1
  H  H67  1  0.64400000  0.48580000  0.86140000  1
  H  H68  1  0.57960000  0.49900000  0.82880000  1
  H  H69  1  0.74860000  0.59790000  0.72480000  1
  H  H70  1  0.69680000  0.53330000  0.73010000  1
  H  H71  1  0.89910000  0.57510000  0.81650000  1
  H  H72  1  0.83230000  0.47450000  0.83160000  1
  H  H73  1  0.85060000  0.51180000  0.86010000  1
  H  H74  1  0.91660000  0.49650000  0.82930000  1
  H  H75  1  0.54660000  0.96280000  0.90990000  1
  H  H76  1  0.25890000  0.72930000  0.39190000  1
  H  H77  1  0.20490000  0.73140000  0.45630000  1
  H  H78  1  0.40270000  0.82250000  0.41920000  1
  H  H79  1  0.33580000  0.83040000  0.52070000  1
  H  H80  1  0.35600000  0.86140000  0.48580000  1
  H  H81  1  0.42040000  0.82880000  0.49900000  1
  H  H82  1  0.25140000  0.72480000  0.59790000  1
  H  H83  1  0.30320000  0.73010000  0.53330000  1
  H  H84  1  0.10090000  0.81650000  0.57510000  1
  H  H85  1  0.16770000  0.83160000  0.47450000  1
  H  H86  1  0.14940000  0.86010000  0.51180000  1
  H  H87  1  0.08340000  0.82930000  0.49650000  1
  H  H88  1  0.25890000  0.27070000  0.60810000  1
  H  H89  1  0.20490000  0.26860000  0.54370000  1
  H  H90  1  0.40270000  0.17750000  0.58080000  1
  H  H91  1  0.33580000  0.16960000  0.47930000  1
  H  H92  1  0.35600000  0.13860000  0.51420000  1
  H  H93  1  0.42040000  0.17120000  0.50100000  1
  H  H94  1  0.25140000  0.27520000  0.40210000  1
  H  H95  1  0.30320000  0.26990000  0.46670000  1
  H  H96  1  0.10090000  0.18350000  0.42490000  1
  H  H97  1  0.16770000  0.16840000  0.52550000  1
  H  H98  1  0.14940000  0.13990000  0.48820000  1
  H  H99  1  0.08340000  0.17070000  0.50350000  1
  H  H100  1  0.75890000  0.89190000  0.77070000  1
  H  H101  1  0.70490000  0.95630000  0.76860000  1
  H  H102  1  0.90270000  0.91920000  0.67750000  1
  H  H103  1  0.83580000  0.02070000  0.66960000  1
  H  H104  1  0.85600000  0.98580000  0.63860000  1
  H  H105  1  0.92040000  0.99900000  0.67120000  1
  H  H106  1  0.75140000  0.09790000  0.77520000  1
  H  H107  1  0.80320000  0.03330000  0.76990000  1
  H  H108  1  0.60090000  0.07510000  0.68350000  1
  H  H109  1  0.66770000  0.97450000  0.66840000  1
  H  H110  1  0.64940000  0.01180000  0.63990000  1
  H  H111  1  0.58340000  0.99650000  0.67070000  1
  H  H112  1  0.75890000  0.10810000  0.22930000  1
  H  H113  1  0.70490000  0.04370000  0.23140000  1
  H  H114  1  0.90270000  0.08080000  0.32250000  1
  H  H115  1  0.83580000  0.97930000  0.33040000  1
  H  H116  1  0.85600000  0.01420000  0.36140000  1
  H  H117  1  0.92040000  0.00100000  0.32880000  1
  H  H118  1  0.75140000  0.90210000  0.22480000  1
  H  H119  1  0.80320000  0.96670000  0.23010000  1
  H  H120  1  0.60090000  0.92490000  0.31650000  1
  H  H121  1  0.66770000  0.02550000  0.33160000  1
  H  H122  1  0.64940000  0.98820000  0.36010000  1
  H  H123  1  0.58340000  0.00350000  0.32930000  1
  H  H124  1  0.75890000  0.22930000  0.10810000  1
  H  H125  1  0.70490000  0.23140000  0.04370000  1
  H  H126  1  0.90270000  0.32250000  0.08080000  1
  H  H127  1  0.83580000  0.33040000  0.97930000  1
  H  H128  1  0.85600000  0.36140000  0.01420000  1
  H  H129  1  0.92040000  0.32880000  0.00100000  1
  H  H130  1  0.75140000  0.22480000  0.90210000  1
  H  H131  1  0.80320000  0.23010000  0.96670000  1
  H  H132  1  0.60090000  0.31650000  0.92490000  1
  H  H133  1  0.66770000  0.33160000  0.02550000  1
  H  H134  1  0.64940000  0.36010000  0.98820000  1
  H  H135  1  0.58340000  0.32930000  0.00350000  1
  H  H136  1  0.95340000  0.40990000  0.53720000  1
  H  H137  1  0.75890000  0.77070000  0.89190000  1
  H  H138  1  0.70490000  0.76860000  0.95630000  1
  H  H139  1  0.90270000  0.67750000  0.91920000  1
  H  H140  1  0.83580000  0.66960000  0.02070000  1
  H  H141  1  0.85600000  0.63860000  0.98580000  1
  H  H142  1  0.92040000  0.67120000  0.99900000  1
  H  H143  1  0.75140000  0.77520000  0.09790000  1
  H  H144  1  0.80320000  0.76990000  0.03330000  1
  H  H145  1  0.60090000  0.68350000  0.07510000  1
  H  H146  1  0.66770000  0.66840000  0.97450000  1
  H  H147  1  0.64940000  0.63990000  0.01180000  1
  H  H148  1  0.58340000  0.67070000  0.99650000  1
  H  H149  1  0.95340000  0.59010000  0.46280000  1
  H  H150  1  0.25890000  0.39190000  0.72930000  1
  H  H151  1  0.20490000  0.45630000  0.73140000  1
  H  H152  1  0.40270000  0.41920000  0.82250000  1
  H  H153  1  0.33580000  0.52070000  0.83040000  1
  H  H154  1  0.35600000  0.48580000  0.86140000  1
  H  H155  1  0.42040000  0.49900000  0.82880000  1
  H  H156  1  0.25140000  0.59790000  0.72480000  1
  H  H157  1  0.30320000  0.53330000  0.73010000  1
  H  H158  1  0.10090000  0.57510000  0.81650000  1
  H  H159  1  0.16770000  0.47450000  0.83160000  1
  H  H160  1  0.14940000  0.51180000  0.86010000  1
  H  H161  1  0.08340000  0.49650000  0.82930000  1
  H  H162  1  0.45340000  0.96280000  0.90990000  1
  H  H163  1  0.25890000  0.60810000  0.27070000  1
  H  H164  1  0.20490000  0.54370000  0.26860000  1
  H  H165  1  0.40270000  0.58080000  0.17750000  1
  H  H166  1  0.33580000  0.47930000  0.16960000  1
  H  H167  1  0.35600000  0.51420000  0.13860000  1
  H  H168  1  0.42040000  0.50100000  0.17120000  1
  H  H169  1  0.25140000  0.40210000  0.27520000  1
  H  H170  1  0.30320000  0.46670000  0.26990000  1
  H  H171  1  0.10090000  0.42490000  0.18350000  1
  H  H172  1  0.16770000  0.52550000  0.16840000  1
  H  H173  1  0.14940000  0.48820000  0.13990000  1
  H  H174  1  0.08340000  0.50350000  0.17070000  1
  H  H175  1  0.45340000  0.03720000  0.09010000  1
  H  H176  1  0.74110000  0.27070000  0.60810000  1
  H  H177  1  0.79510000  0.26860000  0.54370000  1
  H  H178  1  0.59730000  0.17750000  0.58080000  1
  H  H179  1  0.66420000  0.16960000  0.47930000  1
  H  H180  1  0.64400000  0.13860000  0.51420000  1
  H  H181  1  0.57960000  0.17120000  0.50100000  1
  H  H182  1  0.74860000  0.27520000  0.40210000  1
  H  H183  1  0.69680000  0.26990000  0.46670000  1
  H  H184  1  0.89910000  0.18350000  0.42490000  1
  H  H185  1  0.83230000  0.16840000  0.52550000  1
  H  H186  1  0.85060000  0.13990000  0.48820000  1
  H  H187  1  0.91660000  0.17070000  0.50350000  1
  H  H188  1  0.74110000  0.72930000  0.39190000  1
  H  H189  1  0.79510000  0.73140000  0.45630000  1
  H  H190  1  0.59730000  0.82250000  0.41920000  1
  H  H191  1  0.66420000  0.83040000  0.52070000  1
  H  H192  1  0.64400000  0.86140000  0.48580000  1
  H  H193  1  0.57960000  0.82880000  0.49900000  1
  H  H194  1  0.74860000  0.72480000  0.59790000  1
  H  H195  1  0.69680000  0.73010000  0.53330000  1
  H  H196  1  0.89910000  0.81650000  0.57510000  1
  H  H197  1  0.83230000  0.83160000  0.47450000  1
  H  H198  1  0.85060000  0.86010000  0.51180000  1
  H  H199  1  0.91660000  0.82930000  0.49650000  1
  H  H200  1  0.24110000  0.10810000  0.22930000  1
  H  H201  1  0.29510000  0.04370000  0.23140000  1
  H  H202  1  0.09730000  0.08080000  0.32250000  1
  H  H203  1  0.16420000  0.97930000  0.33040000  1
  H  H204  1  0.14400000  0.01420000  0.36140000  1
  H  H205  1  0.07960000  0.00100000  0.32880000  1
  H  H206  1  0.24860000  0.90210000  0.22480000  1
  H  H207  1  0.19680000  0.96670000  0.23010000  1
  H  H208  1  0.39910000  0.92490000  0.31650000  1
  H  H209  1  0.33230000  0.02550000  0.33160000  1
  H  H210  1  0.35060000  0.98820000  0.36010000  1
  H  H211  1  0.41660000  0.00350000  0.32930000  1
  H  H212  1  0.24110000  0.89190000  0.77070000  1
  H  H213  1  0.29510000  0.95630000  0.76860000  1
  H  H214  1  0.09730000  0.91920000  0.67750000  1
  H  H215  1  0.16420000  0.02070000  0.66960000  1
  H  H216  1  0.14400000  0.98580000  0.63860000  1
  H  H217  1  0.07960000  0.99900000  0.67120000  1
  H  H218  1  0.24860000  0.09790000  0.77520000  1
  H  H219  1  0.19680000  0.03330000  0.76990000  1
  H  H220  1  0.39910000  0.07510000  0.68350000  1
  H  H221  1  0.33230000  0.97450000  0.66840000  1
  H  H222  1  0.35060000  0.01180000  0.63990000  1
  H  H223  1  0.41660000  0.99650000  0.67070000  1
  H  H224  1  0.00000000  0.60060000  0.50200000  1
  H  H225  1  0.00000000  0.39940000  0.49800000  1
  H  H226  1  0.50000000  0.99800000  0.10060000  1
  H  H227  1  0.50000000  0.00200000  0.89940000  1
  H  H228  1  0.50000000  0.93320000  0.98040000  1
  H  H229  1  0.50000000  0.06680000  0.01960000  1
  H  H230  1  0.00000000  0.48040000  0.56680000  1
  H  H231  1  0.00000000  0.51960000  0.43320000  1
  H  H232  1  0.12040000  0.61590000  0.61590000  1
  H  H233  1  0.12040000  0.56660000  0.56660000  1
  H  H234  1  0.37630000  0.77980000  0.77980000  1
  H  H235  1  0.49320000  0.68970000  0.68970000  1
  H  H236  1  0.35420000  0.69425000  0.69425000  1
  H  H237  1  0.62320000  0.71105000  0.71105000  1
  H  H238  1  0.64520000  0.79655000  0.79655000  1
  H  H239  1  0.12040000  0.38410000  0.38410000  1
  H  H240  1  0.12040000  0.43340000  0.43340000  1
  H  H241  1  0.37630000  0.22020000  0.22020000  1
  H  H242  1  0.49320000  0.31030000  0.31030000  1
  H  H243  1  0.35420000  0.30575000  0.30575000  1
  H  H244  1  0.62320000  0.28895000  0.28895000  1
  H  H245  1  0.64520000  0.20345000  0.20345000  1
  H  H246  1  0.62040000  0.88410000  0.11590000  1
  H  H247  1  0.62040000  0.93340000  0.06660000  1
  H  H248  1  0.62040000  0.11590000  0.88410000  1
  H  H249  1  0.62040000  0.06660000  0.93340000  1
  H  H250  1  0.87630000  0.27980000  0.72020000  1
  H  H251  1  0.99320000  0.18970000  0.81030000  1
  H  H252  1  0.85420000  0.19425000  0.80575000  1
  H  H253  1  0.12320000  0.21105000  0.78895000  1
  H  H254  1  0.14520000  0.29655000  0.70345000  1
  H  H255  1  0.37960000  0.88410000  0.11590000  1
  H  H256  1  0.37960000  0.93340000  0.06660000  1
  H  H257  1  0.12370000  0.72020000  0.27980000  1
  H  H258  1  0.00680000  0.81030000  0.18970000  1
  H  H259  1  0.14580000  0.80575000  0.19425000  1
  H  H260  1  0.87680000  0.78895000  0.21105000  1
  H  H261  1  0.85480000  0.70345000  0.29655000  1
  H  H262  1  0.37960000  0.11590000  0.88410000  1
  H  H263  1  0.37960000  0.06660000  0.93340000  1
  H  H264  1  0.87960000  0.61590000  0.61590000  1
  H  H265  1  0.87960000  0.56660000  0.56660000  1
  H  H266  1  0.87960000  0.38410000  0.38410000  1
  H  H267  1  0.87960000  0.43340000  0.43340000  1
  H  H268  1  0.50000000  0.80115000  0.80115000  1
  H  H269  1  0.50000000  0.19885000  0.19885000  1
  H  H270  1  0.00000000  0.69885000  0.30115000  1
  H  H271  1  0.00000000  0.30115000  0.69885000  1
  C  C272  1  0.12950000  0.72560000  0.85850000  1
  C  C273  1  0.16420000  0.72435000  0.89954000  1
  C  C274  1  0.22290000  0.75141000  0.91050000  1
  C  C275  1  0.25500000  0.75012000  0.94874000  1
  C  C276  1  0.22820000  0.72179000  0.97592000  1
  C  C277  1  0.16950000  0.69480000  0.96490000  1
  C  C278  1  0.13750000  0.69600000  0.92669000  1
  C  C279  1  0.13640000  0.66600000  0.99530000  1
  C  C280  1  0.36840000  0.73480000  0.13260000  1
  C  C281  1  0.32870000  0.72987000  0.09260000  1
  C  C282  1  0.26870000  0.75552000  0.08019000  1
  C  C283  1  0.23790000  0.75230000  0.04181000  1
  C  C284  1  0.26720000  0.72350000  0.01586000  1
  C  C285  1  0.32730000  0.69790000  0.02827000  1
  C  C286  1  0.35800000  0.70105000  0.06665000  1
  C  C287  1  0.35950000  0.66650000  0.00030000  1
  C  C288  1  0.12950000  0.27440000  0.14150000  1
  C  C289  1  0.16420000  0.27565000  0.10046000  1
  C  C290  1  0.22290000  0.24859000  0.08950000  1
  C  C291  1  0.25500000  0.24988000  0.05126000  1
  C  C292  1  0.22820000  0.27821000  0.02408000  1
  C  C293  1  0.16950000  0.30520000  0.03510000  1
  C  C294  1  0.13750000  0.30400000  0.07331000  1
  C  C295  1  0.13640000  0.33400000  0.00470000  1
  C  C296  1  0.36840000  0.26520000  0.86740000  1
  C  C297  1  0.32870000  0.27013000  0.90740000  1
  C  C298  1  0.26870000  0.24448000  0.91981000  1
  C  C299  1  0.23790000  0.24770000  0.95819000  1
  C  C300  1  0.26720000  0.27650000  0.98414000  1
  C  C301  1  0.32730000  0.30210000  0.97173000  1
  C  C302  1  0.35800000  0.29895000  0.93335000  1
  C  C303  1  0.35950000  0.33350000  0.99970000  1
  C  C304  1  0.62950000  0.64150000  0.22560000  1
  C  C305  1  0.66420000  0.60046000  0.22435000  1
  C  C306  1  0.72290000  0.58950000  0.25141000  1
  C  C307  1  0.75500000  0.55126000  0.25012000  1
  C  C308  1  0.72820000  0.52408000  0.22179000  1
  C  C309  1  0.66950000  0.53510000  0.19480000  1
  C  C310  1  0.63750000  0.57331000  0.19600000  1
  C  C311  1  0.63640000  0.50470000  0.16600000  1
  C  C312  1  0.86840000  0.36740000  0.23480000  1
  C  C313  1  0.82870000  0.40740000  0.22987000  1
  C  C314  1  0.76870000  0.41981000  0.25552000  1
  C  C315  1  0.73790000  0.45819000  0.25230000  1
  C  C316  1  0.76720000  0.48414000  0.22350000  1
  C  C317  1  0.82730000  0.47173000  0.19790000  1
  C  C318  1  0.85800000  0.43335000  0.20105000  1
  C  C319  1  0.85950000  0.49970000  0.16650000  1
  C  C320  1  0.62950000  0.35850000  0.77440000  1
  C  C321  1  0.66420000  0.39954000  0.77565000  1
  C  C322  1  0.72290000  0.41050000  0.74859000  1
  C  C323  1  0.75500000  0.44874000  0.74988000  1
  C  C324  1  0.72820000  0.47592000  0.77821000  1
  C  C325  1  0.66950000  0.46490000  0.80520000  1
  C  C326  1  0.63750000  0.42669000  0.80400000  1
  C  C327  1  0.63640000  0.49530000  0.83400000  1
  C  C328  1  0.86840000  0.63260000  0.76520000  1
  C  C329  1  0.82870000  0.59260000  0.77013000  1
  C  C330  1  0.76870000  0.58019000  0.74448000  1
  C  C331  1  0.73790000  0.54181000  0.74770000  1
  C  C332  1  0.76720000  0.51586000  0.77650000  1
  C  C333  1  0.82730000  0.52827000  0.80210000  1
  C  C334  1  0.85800000  0.56665000  0.79895000  1
  C  C335  1  0.85950000  0.50030000  0.83350000  1
  C  C336  1  0.37050000  0.77440000  0.35850000  1
  C  C337  1  0.33580000  0.77565000  0.39954000  1
  C  C338  1  0.27710000  0.74859000  0.41050000  1
  C  C339  1  0.24500000  0.74988000  0.44874000  1
  C  C340  1  0.27180000  0.77821000  0.47592000  1
  C  C341  1  0.33050000  0.80520000  0.46490000  1
  C  C342  1  0.36250000  0.80400000  0.42669000  1
  C  C343  1  0.36360000  0.83400000  0.49530000  1
  C  C344  1  0.13160000  0.76520000  0.63260000  1
  C  C345  1  0.17130000  0.77013000  0.59260000  1
  C  C346  1  0.23130000  0.74448000  0.58019000  1
  C  C347  1  0.26210000  0.74770000  0.54181000  1
  C  C348  1  0.23280000  0.77650000  0.51586000  1
  C  C349  1  0.17270000  0.80210000  0.52827000  1
  C  C350  1  0.14200000  0.79895000  0.56665000  1
  C  C351  1  0.14050000  0.83350000  0.50030000  1
  C  C352  1  0.37050000  0.22560000  0.64150000  1
  C  C353  1  0.33580000  0.22435000  0.60046000  1
  C  C354  1  0.27710000  0.25141000  0.58950000  1
  C  C355  1  0.24500000  0.25012000  0.55126000  1
  C  C356  1  0.27180000  0.22179000  0.52408000  1
  C  C357  1  0.33050000  0.19480000  0.53510000  1
  C  C358  1  0.36250000  0.19600000  0.57331000  1
  C  C359  1  0.36360000  0.16600000  0.50470000  1
  C  C360  1  0.13160000  0.23480000  0.36740000  1
  C  C361  1  0.17130000  0.22987000  0.40740000  1
  C  C362  1  0.23130000  0.25552000  0.41981000  1
  C  C363  1  0.26210000  0.25230000  0.45819000  1
  C  C364  1  0.23280000  0.22350000  0.48414000  1
  C  C365  1  0.17270000  0.19790000  0.47173000  1
  C  C366  1  0.14200000  0.20105000  0.43335000  1
  C  C367  1  0.14050000  0.16650000  0.49970000  1
  C  C368  1  0.87050000  0.85850000  0.72560000  1
  C  C369  1  0.83580000  0.89954000  0.72435000  1
  C  C370  1  0.77710000  0.91050000  0.75141000  1
  C  C371  1  0.74500000  0.94874000  0.75012000  1
  C  C372  1  0.77180000  0.97592000  0.72179000  1
  C  C373  1  0.83050000  0.96490000  0.69480000  1
  C  C374  1  0.86250000  0.92669000  0.69600000  1
  C  C375  1  0.86360000  0.99530000  0.66600000  1
  C  C376  1  0.63160000  0.13260000  0.73480000  1
  C  C377  1  0.67130000  0.09260000  0.72987000  1
  C  C378  1  0.73130000  0.08019000  0.75552000  1
  C  C379  1  0.76210000  0.04181000  0.75230000  1
  C  C380  1  0.73280000  0.01586000  0.72350000  1
  C  C381  1  0.67270000  0.02827000  0.69790000  1
  C  C382  1  0.64200000  0.06665000  0.70105000  1
  C  C383  1  0.64050000  0.00030000  0.66650000  1
  C  C384  1  0.87050000  0.14150000  0.27440000  1
  C  C385  1  0.83580000  0.10046000  0.27565000  1
  C  C386  1  0.77710000  0.08950000  0.24859000  1
  C  C387  1  0.74500000  0.05126000  0.24988000  1
  C  C388  1  0.77180000  0.02408000  0.27821000  1
  C  C389  1  0.83050000  0.03510000  0.30520000  1
  C  C390  1  0.86250000  0.07331000  0.30400000  1
  C  C391  1  0.86360000  0.00470000  0.33400000  1
  C  C392  1  0.63160000  0.86740000  0.26520000  1
  C  C393  1  0.67130000  0.90740000  0.27013000  1
  C  C394  1  0.73130000  0.91981000  0.24448000  1
  C  C395  1  0.76210000  0.95819000  0.24770000  1
  C  C396  1  0.73280000  0.98414000  0.27650000  1
  C  C397  1  0.67270000  0.97173000  0.30210000  1
  C  C398  1  0.64200000  0.93335000  0.29895000  1
  C  C399  1  0.64050000  0.99970000  0.33350000  1
  C  C400  1  0.87050000  0.27440000  0.14150000  1
  C  C401  1  0.83580000  0.27565000  0.10046000  1
  C  C402  1  0.77710000  0.24859000  0.08950000  1
  C  C403  1  0.74500000  0.24988000  0.05126000  1
  C  C404  1  0.77180000  0.27821000  0.02408000  1
  C  C405  1  0.83050000  0.30520000  0.03510000  1
  C  C406  1  0.86250000  0.30400000  0.07331000  1
  C  C407  1  0.86360000  0.33400000  0.00470000  1
  C  C408  1  0.63160000  0.26520000  0.86740000  1
  C  C409  1  0.67130000  0.27013000  0.90740000  1
  C  C410  1  0.73130000  0.24448000  0.91981000  1
  C  C411  1  0.76210000  0.24770000  0.95819000  1
  C  C412  1  0.73280000  0.27650000  0.98414000  1
  C  C413  1  0.67270000  0.30210000  0.97173000  1
  C  C414  1  0.64200000  0.29895000  0.93335000  1
  C  C415  1  0.64050000  0.33350000  0.99970000  1
  C  C416  1  0.87050000  0.72560000  0.85850000  1
  C  C417  1  0.83580000  0.72435000  0.89954000  1
  C  C418  1  0.77710000  0.75141000  0.91050000  1
  C  C419  1  0.74500000  0.75012000  0.94874000  1
  C  C420  1  0.77180000  0.72179000  0.97592000  1
  C  C421  1  0.83050000  0.69480000  0.96490000  1
  C  C422  1  0.86250000  0.69600000  0.92669000  1
  C  C423  1  0.86360000  0.66600000  0.99530000  1
  C  C424  1  0.63160000  0.73480000  0.13260000  1
  C  C425  1  0.67130000  0.72987000  0.09260000  1
  C  C426  1  0.73130000  0.75552000  0.08019000  1
  C  C427  1  0.76210000  0.75230000  0.04181000  1
  C  C428  1  0.73280000  0.72350000  0.01586000  1
  C  C429  1  0.67270000  0.69790000  0.02827000  1
  C  C430  1  0.64200000  0.70105000  0.06665000  1
  C  C431  1  0.64050000  0.66650000  0.00030000  1
  C  C432  1  0.37050000  0.35850000  0.77440000  1
  C  C433  1  0.33580000  0.39954000  0.77565000  1
  C  C434  1  0.27710000  0.41050000  0.74859000  1
  C  C435  1  0.24500000  0.44874000  0.74988000  1
  C  C436  1  0.27180000  0.47592000  0.77821000  1
  C  C437  1  0.33050000  0.46490000  0.80520000  1
  C  C438  1  0.36250000  0.42669000  0.80400000  1
  C  C439  1  0.36360000  0.49530000  0.83400000  1
  C  C440  1  0.13160000  0.63260000  0.76520000  1
  C  C441  1  0.17130000  0.59260000  0.77013000  1
  C  C442  1  0.23130000  0.58019000  0.74448000  1
  C  C443  1  0.26210000  0.54181000  0.74770000  1
  C  C444  1  0.23280000  0.51586000  0.77650000  1
  C  C445  1  0.17270000  0.52827000  0.80210000  1
  C  C446  1  0.14200000  0.56665000  0.79895000  1
  C  C447  1  0.14050000  0.50030000  0.83350000  1
  C  C448  1  0.37050000  0.64150000  0.22560000  1
  C  C449  1  0.33580000  0.60046000  0.22435000  1
  C  C450  1  0.27710000  0.58950000  0.25141000  1
  C  C451  1  0.24500000  0.55126000  0.25012000  1
  C  C452  1  0.27180000  0.52408000  0.22179000  1
  C  C453  1  0.33050000  0.53510000  0.19480000  1
  C  C454  1  0.36250000  0.57331000  0.19600000  1
  C  C455  1  0.36360000  0.50470000  0.16600000  1
  C  C456  1  0.13160000  0.36740000  0.23480000  1
  C  C457  1  0.17130000  0.40740000  0.22987000  1
  C  C458  1  0.23130000  0.41981000  0.25552000  1
  C  C459  1  0.26210000  0.45819000  0.25230000  1
  C  C460  1  0.23280000  0.48414000  0.22350000  1
  C  C461  1  0.17270000  0.47173000  0.19790000  1
  C  C462  1  0.14200000  0.43335000  0.20105000  1
  C  C463  1  0.14050000  0.49970000  0.16650000  1
  C  C464  1  0.62950000  0.22560000  0.64150000  1
  C  C465  1  0.66420000  0.22435000  0.60046000  1
  C  C466  1  0.72290000  0.25141000  0.58950000  1
  C  C467  1  0.75500000  0.25012000  0.55126000  1
  C  C468  1  0.72820000  0.22179000  0.52408000  1
  C  C469  1  0.66950000  0.19480000  0.53510000  1
  C  C470  1  0.63750000  0.19600000  0.57331000  1
  C  C471  1  0.63640000  0.16600000  0.50470000  1
  C  C472  1  0.86840000  0.23480000  0.36740000  1
  C  C473  1  0.82870000  0.22987000  0.40740000  1
  C  C474  1  0.76870000  0.25552000  0.41981000  1
  C  C475  1  0.73790000  0.25230000  0.45819000  1
  C  C476  1  0.76720000  0.22350000  0.48414000  1
  C  C477  1  0.82730000  0.19790000  0.47173000  1
  C  C478  1  0.85800000  0.20105000  0.43335000  1
  C  C479  1  0.85950000  0.16650000  0.49970000  1
  C  C480  1  0.62950000  0.77440000  0.35850000  1
  C  C481  1  0.66420000  0.77565000  0.39954000  1
  C  C482  1  0.72290000  0.74859000  0.41050000  1
  C  C483  1  0.75500000  0.74988000  0.44874000  1
  C  C484  1  0.72820000  0.77821000  0.47592000  1
  C  C485  1  0.66950000  0.80520000  0.46490000  1
  C  C486  1  0.63750000  0.80400000  0.42669000  1
  C  C487  1  0.63640000  0.83400000  0.49530000  1
  C  C488  1  0.86840000  0.76520000  0.63260000  1
  C  C489  1  0.82870000  0.77013000  0.59260000  1
  C  C490  1  0.76870000  0.74448000  0.58019000  1
  C  C491  1  0.73790000  0.74770000  0.54181000  1
  C  C492  1  0.76720000  0.77650000  0.51586000  1
  C  C493  1  0.82730000  0.80210000  0.52827000  1
  C  C494  1  0.85800000  0.79895000  0.56665000  1
  C  C495  1  0.85950000  0.83350000  0.50030000  1
  C  C496  1  0.12950000  0.14150000  0.27440000  1
  C  C497  1  0.16420000  0.10046000  0.27565000  1
  C  C498  1  0.22290000  0.08950000  0.24859000  1
  C  C499  1  0.25500000  0.05126000  0.24988000  1
  C  C500  1  0.22820000  0.02408000  0.27821000  1
  C  C501  1  0.16950000  0.03510000  0.30520000  1
  C  C502  1  0.13750000  0.07331000  0.30400000  1
  C  C503  1  0.13640000  0.00470000  0.33400000  1
  C  C504  1  0.36840000  0.86740000  0.26520000  1
  C  C505  1  0.32870000  0.90740000  0.27013000  1
  C  C506  1  0.26870000  0.91981000  0.24448000  1
  C  C507  1  0.23790000  0.95819000  0.24770000  1
  C  C508  1  0.26720000  0.98414000  0.27650000  1
  C  C509  1  0.32730000  0.97173000  0.30210000  1
  C  C510  1  0.35800000  0.93335000  0.29895000  1
  C  C511  1  0.35950000  0.99970000  0.33350000  1
  C  C512  1  0.12950000  0.85850000  0.72560000  1
  C  C513  1  0.16420000  0.89954000  0.72435000  1
  C  C514  1  0.22290000  0.91050000  0.75141000  1
  C  C515  1  0.25500000  0.94874000  0.75012000  1
  C  C516  1  0.22820000  0.97592000  0.72179000  1
  C  C517  1  0.16950000  0.96490000  0.69480000  1
  C  C518  1  0.13750000  0.92669000  0.69600000  1
  C  C519  1  0.13640000  0.99530000  0.66600000  1
  C  C520  1  0.36840000  0.13260000  0.73480000  1
  C  C521  1  0.32870000  0.09260000  0.72987000  1
  C  C522  1  0.26870000  0.08019000  0.75552000  1
  C  C523  1  0.23790000  0.04181000  0.75230000  1
  C  C524  1  0.26720000  0.01586000  0.72350000  1
  C  C525  1  0.32730000  0.02827000  0.69790000  1
  C  C526  1  0.35800000  0.06665000  0.70105000  1
  C  C527  1  0.35950000  0.00030000  0.66650000  1
  C  C528  1  0.00000000  0.58430000  0.47830000  1
  C  C529  1  0.00000000  0.49000000  0.54080000  1
  C  C530  1  0.00000000  0.41570000  0.52170000  1
  C  C531  1  0.00000000  0.46060000  0.51150000  1
  C  C532  1  0.50000000  0.02170000  0.08430000  1
  C  C533  1  0.50000000  0.01150000  0.03940000  1
  C  C534  1  0.50000000  0.97830000  0.91570000  1
  C  C535  1  0.50000000  0.04080000  0.01000000  1
  C  C536  1  0.50000000  0.96060000  0.98850000  1
  C  C537  1  0.50000000  0.99000000  0.95920000  1
  C  C538  1  0.00000000  0.54080000  0.49000000  1
  C  C539  1  0.00000000  0.51150000  0.46060000  1
  C  C540  1  0.07153000  0.60592000  0.60592000  1
  C  C541  1  0.07153000  0.57658000  0.57658000  1
  C  C542  1  0.26290000  0.74020000  0.74020000  1
  C  C543  1  0.35240000  0.73750000  0.73750000  1
  C  C544  1  0.40000000  0.76150000  0.76150000  1
  C  C545  1  0.48230000  0.75887000  0.75887000  1
  C  C546  1  0.51710000  0.73225000  0.73225000  1
  C  C547  1  0.46940000  0.70826000  0.70826000  1
  C  C548  1  0.38720000  0.71090000  0.71090000  1
  C  C549  1  0.59930000  0.72960000  0.72960000  1
  C  C550  1  0.64690000  0.75360000  0.75360000  1
  C  C551  1  0.61220000  0.78020000  0.78020000  1
  C  C552  1  0.52990000  0.78285000  0.78285000  1
  C  C553  1  0.73610000  0.75090000  0.75090000  1
  C  C554  1  0.07153000  0.39408000  0.39408000  1
  C  C555  1  0.07153000  0.42342000  0.42342000  1
  C  C556  1  0.26290000  0.25980000  0.25980000  1
  C  C557  1  0.35240000  0.26250000  0.26250000  1
  C  C558  1  0.40000000  0.23850000  0.23850000  1
  C  C559  1  0.48230000  0.24113000  0.24113000  1
  C  C560  1  0.51710000  0.26775000  0.26775000  1
  C  C561  1  0.46940000  0.29174000  0.29174000  1
  C  C562  1  0.38720000  0.28910000  0.28910000  1
  C  C563  1  0.59930000  0.27040000  0.27040000  1
  C  C564  1  0.64690000  0.24640000  0.24640000  1
  C  C565  1  0.61220000  0.21980000  0.21980000  1
  C  C566  1  0.52990000  0.21715000  0.21715000  1
  C  C567  1  0.73610000  0.24910000  0.24910000  1
  C  C568  1  0.57153000  0.89408000  0.10592000  1
  C  C569  1  0.57153000  0.92342000  0.07658000  1
  C  C570  1  0.57153000  0.10592000  0.89408000  1
  C  C571  1  0.57153000  0.07658000  0.92342000  1
  C  C572  1  0.76290000  0.24020000  0.75980000  1
  C  C573  1  0.85240000  0.23750000  0.76250000  1
  C  C574  1  0.90000000  0.26150000  0.73850000  1
  C  C575  1  0.98230000  0.25887000  0.74113000  1
  C  C576  1  0.01710000  0.23225000  0.76775000  1
  C  C577  1  0.96940000  0.20826000  0.79174000  1
  C  C578  1  0.88720000  0.21090000  0.78910000  1
  C  C579  1  0.09930000  0.22960000  0.77040000  1
  C  C580  1  0.14690000  0.25360000  0.74640000  1
  C  C581  1  0.11220000  0.28020000  0.71980000  1
  C  C582  1  0.02990000  0.28285000  0.71715000  1
  C  C583  1  0.23610000  0.25090000  0.74910000  1
  C  C584  1  0.42847000  0.89408000  0.10592000  1
  C  C585  1  0.42847000  0.92342000  0.07658000  1
  C  C586  1  0.23710000  0.75980000  0.24020000  1
  C  C587  1  0.14760000  0.76250000  0.23750000  1
  C  C588  1  0.10000000  0.73850000  0.26150000  1
  C  C589  1  0.01770000  0.74113000  0.25887000  1
  C  C590  1  0.98290000  0.76775000  0.23225000  1
  C  C591  1  0.03060000  0.79174000  0.20826000  1
  C  C592  1  0.11280000  0.78910000  0.21090000  1
  C  C593  1  0.90070000  0.77040000  0.22960000  1
  C  C594  1  0.85310000  0.74640000  0.25360000  1
  C  C595  1  0.88780000  0.71980000  0.28020000  1
  C  C596  1  0.97010000  0.71715000  0.28285000  1
  C  C597  1  0.76390000  0.74910000  0.25090000  1
  C  C598  1  0.42847000  0.10592000  0.89408000  1
  C  C599  1  0.42847000  0.07658000  0.92342000  1
  C  C600  1  0.92847000  0.60592000  0.60592000  1
  C  C601  1  0.92847000  0.57658000  0.57658000  1
  C  C602  1  0.92847000  0.39408000  0.39408000  1
  C  C603  1  0.92847000  0.42342000  0.42342000  1
  C  C604  1  0.00000000  0.65250000  0.65250000  1
  C  C605  1  0.00000000  0.62060000  0.62060000  1
  C  C606  1  0.00000000  0.56190000  0.56190000  1
  C  C607  1  0.00000000  0.53010000  0.53010000  1
  C  C608  1  1.00000000  0.34750000  0.34750000  1
  C  C609  1  0.00000000  0.37940000  0.37940000  1
  C  C610  1  0.00000000  0.43810000  0.43810000  1
  C  C611  1  0.00000000  0.46990000  0.46990000  1
  C  C612  1  0.50000000  0.84750000  0.15250000  1
  C  C613  1  0.50000000  0.87940000  0.12060000  1
  C  C614  1  0.50000000  0.93810000  0.06190000  1
  C  C615  1  0.50000000  0.96990000  0.03010000  1
  C  C616  1  0.50000000  0.15250000  0.84750000  1
  C  C617  1  0.50000000  0.12060000  0.87940000  1
  C  C618  1  0.50000000  0.06190000  0.93810000  1
  C  C619  1  0.50000000  0.03010000  0.96990000  1
  O  O620  1  0.10350000  0.71759000  0.76790000  1
  O  O621  1  0.07780000  0.69870000  0.84950000  1
  O  O622  1  0.14750000  0.75780000  0.83880000  1
  O  O623  1  0.42030000  0.70690000  0.14160000  1
  O  O624  1  0.34980000  0.76670000  0.15160000  1
  O  O625  1  0.10350000  0.28241000  0.23210000  1
  O  O626  1  0.07780000  0.30130000  0.15050000  1
  O  O627  1  0.14750000  0.24220000  0.16120000  1
  O  O628  1  0.42030000  0.29310000  0.85840000  1
  O  O629  1  0.34980000  0.23330000  0.84840000  1
  O  O630  1  0.60350000  0.73210000  0.21759000  1
  O  O631  1  0.57780000  0.65050000  0.19870000  1
  O  O632  1  0.64750000  0.66120000  0.25780000  1
  O  O633  1  0.92030000  0.35840000  0.20690000  1
  O  O634  1  0.84980000  0.34840000  0.26670000  1
  O  O635  1  0.60350000  0.26790000  0.78241000  1
  O  O636  1  0.57780000  0.34950000  0.80130000  1
  O  O637  1  0.64750000  0.33880000  0.74220000  1
  O  O638  1  0.92030000  0.64160000  0.79310000  1
  O  O639  1  0.84980000  0.65160000  0.73330000  1
  O  O640  1  0.39650000  0.78241000  0.26790000  1
  O  O641  1  0.42220000  0.80130000  0.34950000  1
  O  O642  1  0.35250000  0.74220000  0.33880000  1
  O  O643  1  0.07970000  0.79310000  0.64160000  1
  O  O644  1  0.15020000  0.73330000  0.65160000  1
  O  O645  1  0.39650000  0.21759000  0.73210000  1
  O  O646  1  0.42220000  0.19870000  0.65050000  1
  O  O647  1  0.35250000  0.25780000  0.66120000  1
  O  O648  1  0.07970000  0.20690000  0.35840000  1
  O  O649  1  0.15020000  0.26670000  0.34840000  1
  O  O650  1  0.89650000  0.76790000  0.71759000  1
  O  O651  1  0.92220000  0.84950000  0.69870000  1
  O  O652  1  0.85250000  0.83880000  0.75780000  1
  O  O653  1  0.57970000  0.14160000  0.70690000  1
  O  O654  1  0.65020000  0.15160000  0.76670000  1
  O  O655  1  0.89650000  0.23210000  0.28241000  1
  O  O656  1  0.92220000  0.15050000  0.30130000  1
  O  O657  1  0.85250000  0.16120000  0.24220000  1
  O  O658  1  0.57970000  0.85840000  0.29310000  1
  O  O659  1  0.65020000  0.84840000  0.23330000  1
  O  O660  1  0.89650000  0.28241000  0.23210000  1
  O  O661  1  0.92220000  0.30130000  0.15050000  1
  O  O662  1  0.85250000  0.24220000  0.16120000  1
  O  O663  1  0.57970000  0.29310000  0.85840000  1
  O  O664  1  0.65020000  0.23330000  0.84840000  1
  O  O665  1  0.89650000  0.71759000  0.76790000  1
  O  O666  1  0.92220000  0.69870000  0.84950000  1
  O  O667  1  0.85250000  0.75780000  0.83880000  1
  O  O668  1  0.57970000  0.70690000  0.14160000  1
  O  O669  1  0.65020000  0.76670000  0.15160000  1
  O  O670  1  0.39650000  0.26790000  0.78241000  1
  O  O671  1  0.42220000  0.34950000  0.80130000  1
  O  O672  1  0.35250000  0.33880000  0.74220000  1
  O  O673  1  0.07970000  0.64160000  0.79310000  1
  O  O674  1  0.15020000  0.65160000  0.73330000  1
  O  O675  1  0.39650000  0.73210000  0.21759000  1
  O  O676  1  0.42220000  0.65050000  0.19870000  1
  O  O677  1  0.35250000  0.66120000  0.25780000  1
  O  O678  1  0.07970000  0.35840000  0.20690000  1
  O  O679  1  0.15020000  0.34840000  0.26670000  1
  O  O680  1  0.60350000  0.21759000  0.73210000  1
  O  O681  1  0.57780000  0.19870000  0.65050000  1
  O  O682  1  0.64750000  0.25780000  0.66120000  1
  O  O683  1  0.92030000  0.20690000  0.35840000  1
  O  O684  1  0.84980000  0.26670000  0.34840000  1
  O  O685  1  0.60350000  0.78241000  0.26790000  1
  O  O686  1  0.57780000  0.80130000  0.34950000  1
  O  O687  1  0.64750000  0.74220000  0.33880000  1
  O  O688  1  0.92030000  0.79310000  0.64160000  1
  O  O689  1  0.84980000  0.73330000  0.65160000  1
  O  O690  1  0.10350000  0.23210000  0.28241000  1
  O  O691  1  0.07780000  0.15050000  0.30130000  1
  O  O692  1  0.14750000  0.16120000  0.24220000  1
  O  O693  1  0.42030000  0.85840000  0.29310000  1
  O  O694  1  0.34980000  0.84840000  0.23330000  1
  O  O695  1  0.10350000  0.76790000  0.71759000  1
  O  O696  1  0.07780000  0.84950000  0.69870000  1
  O  O697  1  0.14750000  0.83880000  0.75780000  1
  O  O698  1  0.42030000  0.14160000  0.70690000  1
  O  O699  1  0.34980000  0.15160000  0.76670000  1
  O  O700  1  0.00000000  0.75200000  0.80500000  1
  O  O701  1  0.00000000  0.68420000  0.73550000  1
  O  O702  1  0.00000000  0.24800000  0.19500000  1
  O  O703  1  0.00000000  0.31580000  0.26450000  1
  O  O704  1  0.50000000  0.69500000  0.25200000  1
  O  O705  1  0.50000000  0.76450000  0.18420000  1
  O  O706  1  0.50000000  0.30500000  0.74800000  1
  O  O707  1  0.50000000  0.23550000  0.81580000  1
  O  O708  1  0.50000000  0.74800000  0.30500000  1
  O  O709  1  0.50000000  0.81580000  0.23550000  1
  O  O710  1  0.50000000  0.25200000  0.69500000  1
  O  O711  1  0.50000000  0.18420000  0.76450000  1
  O  O712  1  0.00000000  0.80500000  0.75200000  1
  O  O713  1  0.00000000  0.73550000  0.68420000  1
  O  O714  1  0.00000000  0.19500000  0.24800000  1
  O  O715  1  0.00000000  0.26450000  0.31580000  1
  O  O716  1  0.06930000  0.66310000  0.66310000  1
  O  O717  1  0.22870000  0.71640000  0.71640000  1
  O  O718  1  0.23870000  0.76540000  0.76540000  1
  O  O719  1  0.76080000  0.72580000  0.72580000  1
  O  O720  1  0.77150000  0.77430000  0.77430000  1
  O  O721  1  0.06930000  0.33690000  0.33690000  1
  O  O722  1  0.22870000  0.28360000  0.28360000  1
  O  O723  1  0.23870000  0.23460000  0.23460000  1
  O  O724  1  0.76080000  0.27420000  0.27420000  1
  O  O725  1  0.77150000  0.22570000  0.22570000  1
  O  O726  1  0.56930000  0.83690000  0.16310000  1
  O  O727  1  0.56930000  0.16310000  0.83690000  1
  O  O728  1  0.72870000  0.21640000  0.78360000  1
  O  O729  1  0.73870000  0.26540000  0.73460000  1
  O  O730  1  0.26080000  0.22580000  0.77420000  1
  O  O731  1  0.27150000  0.27430000  0.72570000  1
  O  O732  1  0.43070000  0.83690000  0.16310000  1
  O  O733  1  0.27130000  0.78360000  0.21640000  1
  O  O734  1  0.26130000  0.73460000  0.26540000  1
  O  O735  1  0.73920000  0.77420000  0.22580000  1
  O  O736  1  0.72850000  0.72570000  0.27430000  1
  O  O737  1  0.43070000  0.16310000  0.83690000  1
  O  O738  1  0.93070000  0.66310000  0.66310000  1
  O  O739  1  0.93070000  0.33690000  0.33690000  1
