# generated using pymatgen
data_Zr3H28(C23O8)2
_symmetry_space_group_name_H-M   'P 1'
_cell_length_a   19.07000000
_cell_length_b   23.33000000
_cell_length_c   23.33200000
_cell_angle_alpha   90.00000000
_cell_angle_beta   90.00000000
_cell_angle_gamma   90.00000000
_symmetry_Int_Tables_number   1
_chemical_formula_structural   Zr3H28(C23O8)2
_chemical_formula_sum   'Zr12 H112 C184 O64'
_cell_volume   10380.47912920
_cell_formula_units_Z   4
loop_
 _symmetry_equiv_pos_site_id
 _symmetry_equiv_pos_as_xyz
  1  'x, y, z'
loop_
 _atom_site_type_symbol
 _atom_site_label
 _atom_site_symmetry_multiplicity
 _atom_site_fract_x
 _atom_site_fract_y
 _atom_site_fract_z
 _atom_site_occupancy
  Zr  Zr0  1  0.59232000  0.50000000  0.92473000  1
  Zr  Zr1  1  0.59232000  0.50000000  0.07527000  1
  Zr  Zr2  1  0.09232000  0.07527000  0.50000000  1
  Zr  Zr3  1  0.09232000  0.92473000  0.50000000  1
  Zr  Zr4  1  0.40768000  0.50000000  0.92473000  1
  Zr  Zr5  1  0.40768000  0.50000000  0.07527000  1
  Zr  Zr6  1  0.90768000  0.92473000  0.50000000  1
  Zr  Zr7  1  0.90768000  0.07527000  0.50000000  1
  Zr  Zr8  1  0.50000000  0.39202000  0.00000000  1
  Zr  Zr9  1  0.50000000  0.60798000  0.00000000  1
  Zr  Zr10  1  0.00000000  0.00000000  0.39202000  1
  Zr  Zr11  1  0.00000000  0.00000000  0.60798000  1
  H  H12  1  0.69920000  0.38780000  0.81010000  1
  H  H13  1  0.75960000  0.32570000  0.74880000  1
  H  H14  1  0.68910000  0.18970000  0.84030000  1
  H  H15  1  0.62870000  0.25180000  0.90160000  1
  H  H16  1  0.45890000  0.60910000  0.58650000  1
  H  H17  1  0.69920000  0.61220000  0.18990000  1
  H  H18  1  0.75960000  0.67430000  0.25120000  1
  H  H19  1  0.68910000  0.81030000  0.15970000  1
  H  H20  1  0.62870000  0.74820000  0.09840000  1
  H  H21  1  0.45890000  0.39090000  0.41350000  1
  H  H22  1  0.19920000  0.18990000  0.38780000  1
  H  H23  1  0.25960000  0.25120000  0.32570000  1
  H  H24  1  0.18910000  0.15970000  0.18970000  1
  H  H25  1  0.12870000  0.09840000  0.25180000  1
  H  H26  1  0.19920000  0.81010000  0.61220000  1
  H  H27  1  0.25960000  0.74880000  0.67430000  1
  H  H28  1  0.18910000  0.84030000  0.81030000  1
  H  H29  1  0.12870000  0.90160000  0.74820000  1
  H  H30  1  0.30080000  0.61220000  0.81010000  1
  H  H31  1  0.24040000  0.67430000  0.74880000  1
  H  H32  1  0.31090000  0.81030000  0.84030000  1
  H  H33  1  0.37130000  0.74820000  0.90160000  1
  H  H34  1  0.30080000  0.38780000  0.18990000  1
  H  H35  1  0.24040000  0.32570000  0.25120000  1
  H  H36  1  0.31090000  0.18970000  0.15970000  1
  H  H37  1  0.37130000  0.25180000  0.09840000  1
  H  H38  1  0.80080000  0.81010000  0.38780000  1
  H  H39  1  0.74040000  0.74880000  0.32570000  1
  H  H40  1  0.81090000  0.84030000  0.18970000  1
  H  H41  1  0.87130000  0.90160000  0.25180000  1
  H  H42  1  0.04110000  0.58650000  0.60910000  1
  H  H43  1  0.80080000  0.18990000  0.61220000  1
  H  H44  1  0.74040000  0.25120000  0.67430000  1
  H  H45  1  0.81090000  0.15970000  0.81030000  1
  H  H46  1  0.87130000  0.09840000  0.74820000  1
  H  H47  1  0.04110000  0.41350000  0.39090000  1
  H  H48  1  0.30080000  0.61220000  0.18990000  1
  H  H49  1  0.24040000  0.67430000  0.25120000  1
  H  H50  1  0.31090000  0.81030000  0.15970000  1
  H  H51  1  0.37130000  0.74820000  0.09840000  1
  H  H52  1  0.54110000  0.39090000  0.41350000  1
  H  H53  1  0.30080000  0.38780000  0.81010000  1
  H  H54  1  0.24040000  0.32570000  0.74880000  1
  H  H55  1  0.31090000  0.18970000  0.84030000  1
  H  H56  1  0.37130000  0.25180000  0.90160000  1
  H  H57  1  0.54110000  0.60910000  0.58650000  1
  H  H58  1  0.80080000  0.81010000  0.61220000  1
  H  H59  1  0.74040000  0.74880000  0.67430000  1
  H  H60  1  0.81090000  0.84030000  0.81030000  1
  H  H61  1  0.87130000  0.90160000  0.74820000  1
  H  H62  1  0.80080000  0.18990000  0.38780000  1
  H  H63  1  0.74040000  0.25120000  0.32570000  1
  H  H64  1  0.81090000  0.15970000  0.18970000  1
  H  H65  1  0.87130000  0.09840000  0.25180000  1
  H  H66  1  0.69920000  0.38780000  0.18990000  1
  H  H67  1  0.75960000  0.32570000  0.25120000  1
  H  H68  1  0.68910000  0.18970000  0.15970000  1
  H  H69  1  0.62870000  0.25180000  0.09840000  1
  H  H70  1  0.69920000  0.61220000  0.81010000  1
  H  H71  1  0.75960000  0.67430000  0.74880000  1
  H  H72  1  0.68910000  0.81030000  0.84030000  1
  H  H73  1  0.62870000  0.74820000  0.90160000  1
  H  H74  1  0.19920000  0.18990000  0.61220000  1
  H  H75  1  0.25960000  0.25120000  0.67430000  1
  H  H76  1  0.18910000  0.15970000  0.81030000  1
  H  H77  1  0.12870000  0.09840000  0.74820000  1
  H  H78  1  0.95890000  0.41350000  0.39090000  1
  H  H79  1  0.19920000  0.81010000  0.38780000  1
  H  H80  1  0.25960000  0.74880000  0.32570000  1
  H  H81  1  0.18910000  0.84030000  0.18970000  1
  H  H82  1  0.12870000  0.90160000  0.25180000  1
  H  H83  1  0.95890000  0.58650000  0.60910000  1
  H  H84  1  0.82610000  0.50000000  0.91320000  1
  H  H85  1  0.94870000  0.50000000  0.91320000  1
  H  H86  1  0.60560000  0.50000000  0.73400000  1
  H  H87  1  0.60600000  0.50000000  0.63350000  1
  H  H88  1  0.82610000  0.50000000  0.08680000  1
  H  H89  1  0.94870000  0.50000000  0.08680000  1
  H  H90  1  0.60560000  0.50000000  0.26600000  1
  H  H91  1  0.60600000  0.50000000  0.36650000  1
  H  H92  1  0.32610000  0.08680000  0.50000000  1
  H  H93  1  0.44870000  0.08680000  0.50000000  1
  H  H94  1  0.10560000  0.26600000  0.50000000  1
  H  H95  1  0.10600000  0.36650000  0.50000000  1
  H  H96  1  0.32610000  0.91320000  0.50000000  1
  H  H97  1  0.44870000  0.91320000  0.50000000  1
  H  H98  1  0.10560000  0.73400000  0.50000000  1
  H  H99  1  0.10600000  0.63350000  0.50000000  1
  H  H100  1  0.17390000  0.50000000  0.91320000  1
  H  H101  1  0.05130000  0.50000000  0.91320000  1
  H  H102  1  0.39440000  0.50000000  0.73400000  1
  H  H103  1  0.39400000  0.50000000  0.63350000  1
  H  H104  1  0.17390000  0.50000000  0.08680000  1
  H  H105  1  0.05130000  0.50000000  0.08680000  1
  H  H106  1  0.39440000  0.50000000  0.26600000  1
  H  H107  1  0.39400000  0.50000000  0.36650000  1
  H  H108  1  0.67390000  0.91320000  0.50000000  1
  H  H109  1  0.55130000  0.91320000  0.50000000  1
  H  H110  1  0.89440000  0.73400000  0.50000000  1
  H  H111  1  0.89400000  0.63350000  0.50000000  1
  H  H112  1  0.67390000  0.08680000  0.50000000  1
  H  H113  1  0.55130000  0.08680000  0.50000000  1
  H  H114  1  0.89440000  0.26600000  0.50000000  1
  H  H115  1  0.89400000  0.36650000  0.50000000  1
  H  H116  1  0.50000000  0.63860000  0.53640000  1
  H  H117  1  0.50000000  0.36140000  0.46360000  1
  H  H118  1  0.00000000  0.45090000  0.58660000  1
  H  H119  1  0.00000000  0.54910000  0.41340000  1
  H  H120  1  0.50000000  0.41340000  0.54910000  1
  H  H121  1  0.50000000  0.58660000  0.45090000  1
  H  H122  1  0.00000000  0.53640000  0.63860000  1
  H  H123  1  0.00000000  0.46360000  0.36140000  1
  C  C124  1  0.61930000  0.36570000  0.90120000  1
  C  C125  1  0.65830000  0.32570000  0.86170000  1
  C  C126  1  0.69710000  0.34760000  0.81620000  1
  C  C127  1  0.73300000  0.31070000  0.77980000  1
  C  C128  1  0.73004000  0.25180000  0.78880000  1
  C  C129  1  0.69120000  0.22990000  0.83420000  1
  C  C130  1  0.65530000  0.26680000  0.87060000  1
  C  C131  1  0.61930000  0.63430000  0.09880000  1
  C  C132  1  0.65830000  0.67430000  0.13830000  1
  C  C133  1  0.69710000  0.65240000  0.18380000  1
  C  C134  1  0.73300000  0.68930000  0.22020000  1
  C  C135  1  0.73004000  0.74820000  0.21120000  1
  C  C136  1  0.69120000  0.77010000  0.16580000  1
  C  C137  1  0.65530000  0.73320000  0.12940000  1
  C  C138  1  0.11930000  0.09880000  0.36570000  1
  C  C139  1  0.15830000  0.13830000  0.32570000  1
  C  C140  1  0.19710000  0.18380000  0.34760000  1
  C  C141  1  0.23300000  0.22020000  0.31070000  1
  C  C142  1  0.23004000  0.21120000  0.25180000  1
  C  C143  1  0.19120000  0.16580000  0.22990000  1
  C  C144  1  0.15530000  0.12940000  0.26680000  1
  C  C145  1  0.11930000  0.90120000  0.63430000  1
  C  C146  1  0.15830000  0.86170000  0.67430000  1
  C  C147  1  0.19710000  0.81620000  0.65240000  1
  C  C148  1  0.23300000  0.77980000  0.68930000  1
  C  C149  1  0.23004000  0.78880000  0.74820000  1
  C  C150  1  0.19120000  0.83420000  0.77010000  1
  C  C151  1  0.15530000  0.87060000  0.73320000  1
  C  C152  1  0.38070000  0.63430000  0.90120000  1
  C  C153  1  0.34170000  0.67430000  0.86170000  1
  C  C154  1  0.30290000  0.65240000  0.81620000  1
  C  C155  1  0.26700000  0.68930000  0.77980000  1
  C  C156  1  0.26996000  0.74820000  0.78880000  1
  C  C157  1  0.30880000  0.77010000  0.83420000  1
  C  C158  1  0.34470000  0.73320000  0.87060000  1
  C  C159  1  0.38070000  0.36570000  0.09880000  1
  C  C160  1  0.34170000  0.32570000  0.13830000  1
  C  C161  1  0.30290000  0.34760000  0.18380000  1
  C  C162  1  0.26700000  0.31070000  0.22020000  1
  C  C163  1  0.26996000  0.25180000  0.21120000  1
  C  C164  1  0.30880000  0.22990000  0.16580000  1
  C  C165  1  0.34470000  0.26680000  0.12940000  1
  C  C166  1  0.88070000  0.90120000  0.36570000  1
  C  C167  1  0.84170000  0.86170000  0.32570000  1
  C  C168  1  0.80290000  0.81620000  0.34760000  1
  C  C169  1  0.76700000  0.77980000  0.31070000  1
  C  C170  1  0.76996000  0.78880000  0.25180000  1
  C  C171  1  0.80880000  0.83420000  0.22990000  1
  C  C172  1  0.84470000  0.87060000  0.26680000  1
  C  C173  1  0.88070000  0.09880000  0.63430000  1
  C  C174  1  0.84170000  0.13830000  0.67430000  1
  C  C175  1  0.80290000  0.18380000  0.65240000  1
  C  C176  1  0.76700000  0.22020000  0.68930000  1
  C  C177  1  0.76996000  0.21120000  0.74820000  1
  C  C178  1  0.80880000  0.16580000  0.77010000  1
  C  C179  1  0.84470000  0.12940000  0.73320000  1
  C  C180  1  0.38070000  0.63430000  0.09880000  1
  C  C181  1  0.34170000  0.67430000  0.13830000  1
  C  C182  1  0.30290000  0.65240000  0.18380000  1
  C  C183  1  0.26700000  0.68930000  0.22020000  1
  C  C184  1  0.26996000  0.74820000  0.21120000  1
  C  C185  1  0.30880000  0.77010000  0.16580000  1
  C  C186  1  0.34470000  0.73320000  0.12940000  1
  C  C187  1  0.38070000  0.36570000  0.90120000  1
  C  C188  1  0.34170000  0.32570000  0.86170000  1
  C  C189  1  0.30290000  0.34760000  0.81620000  1
  C  C190  1  0.26700000  0.31070000  0.77980000  1
  C  C191  1  0.26996000  0.25180000  0.78880000  1
  C  C192  1  0.30880000  0.22990000  0.83420000  1
  C  C193  1  0.34470000  0.26680000  0.87060000  1
  C  C194  1  0.88070000  0.90120000  0.63430000  1
  C  C195  1  0.84170000  0.86170000  0.67430000  1
  C  C196  1  0.80290000  0.81620000  0.65240000  1
  C  C197  1  0.76700000  0.77980000  0.68930000  1
  C  C198  1  0.76996000  0.78880000  0.74820000  1
  C  C199  1  0.80880000  0.83420000  0.77010000  1
  C  C200  1  0.84470000  0.87060000  0.73320000  1
  C  C201  1  0.88070000  0.09880000  0.36570000  1
  C  C202  1  0.84170000  0.13830000  0.32570000  1
  C  C203  1  0.80290000  0.18380000  0.34760000  1
  C  C204  1  0.76700000  0.22020000  0.31070000  1
  C  C205  1  0.76996000  0.21120000  0.25180000  1
  C  C206  1  0.80880000  0.16580000  0.22990000  1
  C  C207  1  0.84470000  0.12940000  0.26680000  1
  C  C208  1  0.61930000  0.36570000  0.09880000  1
  C  C209  1  0.65830000  0.32570000  0.13830000  1
  C  C210  1  0.69710000  0.34760000  0.18380000  1
  C  C211  1  0.73300000  0.31070000  0.22020000  1
  C  C212  1  0.73004000  0.25180000  0.21120000  1
  C  C213  1  0.69120000  0.22990000  0.16580000  1
  C  C214  1  0.65530000  0.26680000  0.12940000  1
  C  C215  1  0.61930000  0.63430000  0.90120000  1
  C  C216  1  0.65830000  0.67430000  0.86170000  1
  C  C217  1  0.69710000  0.65240000  0.81620000  1
  C  C218  1  0.73300000  0.68930000  0.77980000  1
  C  C219  1  0.73004000  0.74820000  0.78880000  1
  C  C220  1  0.69120000  0.77010000  0.83420000  1
  C  C221  1  0.65530000  0.73320000  0.87060000  1
  C  C222  1  0.11930000  0.09880000  0.63430000  1
  C  C223  1  0.15830000  0.13830000  0.67430000  1
  C  C224  1  0.19710000  0.18380000  0.65240000  1
  C  C225  1  0.23300000  0.22020000  0.68930000  1
  C  C226  1  0.23004000  0.21120000  0.74820000  1
  C  C227  1  0.19120000  0.16580000  0.77010000  1
  C  C228  1  0.15530000  0.12940000  0.73320000  1
  C  C229  1  0.11930000  0.90120000  0.36570000  1
  C  C230  1  0.15830000  0.86170000  0.32570000  1
  C  C231  1  0.19710000  0.81620000  0.34760000  1
  C  C232  1  0.23300000  0.77980000  0.31070000  1
  C  C233  1  0.23004000  0.78880000  0.25180000  1
  C  C234  1  0.19120000  0.83420000  0.22990000  1
  C  C235  1  0.15530000  0.87060000  0.26680000  1
  C  C236  1  0.85100000  0.50000000  0.94847000  1
  C  C237  1  0.92390000  0.50000000  0.94847000  1
  C  C238  1  0.56250000  0.50000000  0.71360000  1
  C  C239  1  0.56280000  0.50000000  0.65380000  1
  C  C240  1  0.85100000  0.50000000  0.05153000  1
  C  C241  1  0.92390000  0.50000000  0.05153000  1
  C  C242  1  0.56250000  0.50000000  0.28640000  1
  C  C243  1  0.56280000  0.50000000  0.34620000  1
  C  C244  1  0.35100000  0.05153000  0.50000000  1
  C  C245  1  0.42390000  0.05153000  0.50000000  1
  C  C246  1  0.06250000  0.28640000  0.50000000  1
  C  C247  1  0.06280000  0.34620000  0.50000000  1
  C  C248  1  0.35100000  0.94847000  0.50000000  1
  C  C249  1  0.42390000  0.94847000  0.50000000  1
  C  C250  1  0.06250000  0.71360000  0.50000000  1
  C  C251  1  0.06280000  0.65380000  0.50000000  1
  C  C252  1  0.14900000  0.50000000  0.94847000  1
  C  C253  1  0.07610000  0.50000000  0.94847000  1
  C  C254  1  0.43750000  0.50000000  0.71360000  1
  C  C255  1  0.43720000  0.50000000  0.65380000  1
  C  C256  1  0.14900000  0.50000000  0.05153000  1
  C  C257  1  0.07610000  0.50000000  0.05153000  1
  C  C258  1  0.43750000  0.50000000  0.28640000  1
  C  C259  1  0.43720000  0.50000000  0.34620000  1
  C  C260  1  0.64900000  0.94847000  0.50000000  1
  C  C261  1  0.57610000  0.94847000  0.50000000  1
  C  C262  1  0.93750000  0.71360000  0.50000000  1
  C  C263  1  0.93720000  0.65380000  0.50000000  1
  C  C264  1  0.64900000  0.05153000  0.50000000  1
  C  C265  1  0.57610000  0.05153000  0.50000000  1
  C  C266  1  0.93750000  0.28640000  0.50000000  1
  C  C267  1  0.93720000  0.34620000  0.50000000  1
  C  C268  1  0.50000000  0.55162000  0.52979000  1
  C  C269  1  0.50000000  0.60710000  0.56280000  1
  C  C270  1  0.50000000  0.44838000  0.47021000  1
  C  C271  1  0.50000000  0.39290000  0.43720000  1
  C  C272  1  0.00000000  0.47021000  0.55162000  1
  C  C273  1  1.00000000  0.52979000  0.44838000  1
  C  C274  1  0.50000000  0.44838000  0.52979000  1
  C  C275  1  0.50000000  0.55162000  0.47021000  1
  C  C276  1  0.00000000  0.52979000  0.55162000  1
  C  C277  1  0.00000000  0.56280000  0.60710000  1
  C  C278  1  1.00000000  0.47021000  0.44838000  1
  C  C279  1  0.00000000  0.43720000  0.39290000  1
  C  C280  1  0.73540000  0.50000000  0.00000000  1
  C  C281  1  0.81450000  0.50000000  0.00000000  1
  C  C282  1  0.96040000  0.50000000  0.00000000  1
  C  C283  1  0.23540000  0.00000000  0.50000000  1
  C  C284  1  0.31450000  0.00000000  0.50000000  1
  C  C285  1  0.46040000  0.00000000  0.50000000  1
  C  C286  1  0.26460000  0.50000000  0.00000000  1
  C  C287  1  0.18550000  0.50000000  0.00000000  1
  C  C288  1  0.03960000  0.50000000  0.00000000  1
  C  C289  1  0.76460000  0.00000000  0.50000000  1
  C  C290  1  0.68550000  0.00000000  0.50000000  1
  C  C291  1  0.53960000  0.00000000  0.50000000  1
  C  C292  1  0.50000000  0.50000000  0.80790000  1
  C  C293  1  0.50000000  0.50000000  0.74330000  1
  C  C294  1  0.50000000  0.50000000  0.62410000  1
  C  C295  1  0.50000000  0.50000000  0.55950000  1
  C  C296  1  0.50000000  0.50000000  0.19210000  1
  C  C297  1  0.50000000  0.50000000  0.25670000  1
  C  C298  1  0.50000000  0.50000000  0.37590000  1
  C  C299  1  0.50000000  0.50000000  0.44050000  1
  C  C300  1  0.00000000  0.19210000  0.50000000  1
  C  C301  1  0.00000000  0.25670000  0.50000000  1
  C  C302  1  0.00000000  0.37590000  0.50000000  1
  C  C303  1  0.00000000  0.44050000  0.50000000  1
  C  C304  1  1.00000000  0.80790000  0.50000000  1
  C  C305  1  0.00000000  0.74330000  0.50000000  1
  C  C306  1  0.00000000  0.62410000  0.50000000  1
  C  C307  1  0.00000000  0.55950000  0.50000000  1
  O  O308  1  0.63730000  0.41870000  0.88900000  1
  O  O309  1  0.57410000  0.34400000  0.93960000  1
  O  O310  1  0.63730000  0.58130000  0.11100000  1
  O  O311  1  0.57410000  0.65600000  0.06040000  1
  O  O312  1  0.13730000  0.11100000  0.41870000  1
  O  O313  1  0.07410000  0.06040000  0.34400000  1
  O  O314  1  0.13730000  0.88900000  0.58130000  1
  O  O315  1  0.07410000  0.93960000  0.65600000  1
  O  O316  1  0.36270000  0.58130000  0.88900000  1
  O  O317  1  0.42590000  0.65600000  0.93960000  1
  O  O318  1  0.36270000  0.41870000  0.11100000  1
  O  O319  1  0.42590000  0.34400000  0.06040000  1
  O  O320  1  0.86270000  0.88900000  0.41870000  1
  O  O321  1  0.92590000  0.93960000  0.34400000  1
  O  O322  1  0.86270000  0.11100000  0.58130000  1
  O  O323  1  0.92590000  0.06040000  0.65600000  1
  O  O324  1  0.36270000  0.58130000  0.11100000  1
  O  O325  1  0.42590000  0.65600000  0.06040000  1
  O  O326  1  0.36270000  0.41870000  0.88900000  1
  O  O327  1  0.42590000  0.34400000  0.93960000  1
  O  O328  1  0.86270000  0.88900000  0.58130000  1
  O  O329  1  0.92590000  0.93960000  0.65600000  1
  O  O330  1  0.86270000  0.11100000  0.41870000  1
  O  O331  1  0.92590000  0.06040000  0.34400000  1
  O  O332  1  0.63730000  0.41870000  0.11100000  1
  O  O333  1  0.57410000  0.34400000  0.06040000  1
  O  O334  1  0.63730000  0.58130000  0.88900000  1
  O  O335  1  0.57410000  0.65600000  0.93960000  1
  O  O336  1  0.13730000  0.11100000  0.58130000  1
  O  O337  1  0.07410000  0.06040000  0.65600000  1
  O  O338  1  0.13730000  0.88900000  0.41870000  1
  O  O339  1  0.07410000  0.93960000  0.34400000  1
  O  O340  1  0.70330000  0.50000000  0.95010000  1
  O  O341  1  0.55880000  0.50000000  0.83310000  1
  O  O342  1  0.70330000  0.50000000  0.04990000  1
  O  O343  1  0.55880000  0.50000000  0.16690000  1
  O  O344  1  0.20330000  0.04990000  0.50000000  1
  O  O345  1  0.05880000  0.16690000  0.50000000  1
  O  O346  1  0.20330000  0.95010000  0.50000000  1
  O  O347  1  0.05880000  0.83310000  0.50000000  1
  O  O348  1  0.29670000  0.50000000  0.95010000  1
  O  O349  1  0.44120000  0.50000000  0.83310000  1
  O  O350  1  0.29670000  0.50000000  0.04990000  1
  O  O351  1  0.44120000  0.50000000  0.16690000  1
  O  O352  1  0.79670000  0.95010000  0.50000000  1
  O  O353  1  0.94120000  0.83310000  0.50000000  1
  O  O354  1  0.79670000  0.04990000  0.50000000  1
  O  O355  1  0.94120000  0.16690000  0.50000000  1
  O  O356  1  0.50000000  0.45080000  0.92490000  1
  O  O357  1  0.50000000  0.54920000  0.07510000  1
  O  O358  1  0.00000000  0.07510000  0.45080000  1
  O  O359  1  0.00000000  0.92490000  0.54920000  1
  O  O360  1  0.50000000  0.54920000  0.92490000  1
  O  O361  1  0.50000000  0.45080000  0.07510000  1
  O  O362  1  0.00000000  0.92490000  0.45080000  1
  O  O363  1  0.00000000  0.07510000  0.54920000  1
  O  O364  1  0.59130000  0.44610000  0.00000000  1
  O  O365  1  0.59130000  0.55390000  0.00000000  1
  O  O366  1  0.09130000  0.00000000  0.44610000  1
  O  O367  1  0.09130000  0.00000000  0.55390000  1
  O  O368  1  0.40870000  0.55390000  0.00000000  1
  O  O369  1  0.40870000  0.44610000  0.00000000  1
  O  O370  1  0.90870000  0.00000000  0.44610000  1
  O  O371  1  0.90870000  0.00000000  0.55390000  1
