# generated using pymatgen
data_Zr3Ti2H28(C5O3)8
_symmetry_space_group_name_H-M   'P 1'
_cell_length_a   28.19140000
_cell_length_b   28.19140000
_cell_length_c   28.19140000
_cell_angle_alpha   90.00000000
_cell_angle_beta   90.00000000
_cell_angle_gamma   90.00000000
_symmetry_Int_Tables_number   1
_chemical_formula_structural   Zr3Ti2H28(C5O3)8
_chemical_formula_sum   'Zr18 Ti12 H168 C240 O144'
_cell_volume   22405.25706438
_cell_formula_units_Z   6
loop_
 _symmetry_equiv_pos_site_id
 _symmetry_equiv_pos_as_xyz
  1  'x, y, z'
loop_
 _atom_site_type_symbol
 _atom_site_label
 _atom_site_symmetry_multiplicity
 _atom_site_fract_x
 _atom_site_fract_y
 _atom_site_fract_z
 _atom_site_occupancy
  Zr  Zr0  1  0.50000000  0.08677000  0.50000000  1
  Zr  Zr1  1  0.50000000  0.91323000  0.50000000  1
  Zr  Zr2  1  0.50000000  0.50000000  0.08677000  1
  Zr  Zr3  1  0.50000000  0.50000000  0.91323000  1
  Zr  Zr4  1  0.08677000  0.50000000  0.50000000  1
  Zr  Zr5  1  0.91323000  0.50000000  0.50000000  1
  Zr  Zr6  1  0.43738000  0.00000000  0.43738000  1
  Zr  Zr7  1  0.56262000  0.00000000  0.43738000  1
  Zr  Zr8  1  0.56262000  0.00000000  0.56262000  1
  Zr  Zr9  1  0.43738000  0.00000000  0.56262000  1
  Zr  Zr10  1  0.43738000  0.43738000  0.00000000  1
  Zr  Zr11  1  0.43738000  0.56262000  0.00000000  1
  Zr  Zr12  1  0.56262000  0.56262000  0.00000000  1
  Zr  Zr13  1  0.56262000  0.43738000  0.00000000  1
  Zr  Zr14  1  0.00000000  0.43738000  0.43738000  1
  Zr  Zr15  1  0.00000000  0.43738000  0.56262000  1
  Zr  Zr16  1  0.00000000  0.56262000  0.56262000  1
  Zr  Zr17  1  0.00000000  0.56262000  0.43738000  1
  Ti  Ti18  1  0.50000000  0.00000000  0.32690000  1
  Ti  Ti19  1  0.50000000  0.00000000  0.67310000  1
  Ti  Ti20  1  0.32690000  0.50000000  0.00000000  1
  Ti  Ti21  1  0.67310000  0.50000000  0.00000000  1
  Ti  Ti22  1  0.00000000  0.32690000  0.50000000  1
  Ti  Ti23  1  0.00000000  0.67310000  0.50000000  1
  Ti  Ti24  1  0.00000000  0.50000000  0.67310000  1
  Ti  Ti25  1  0.00000000  0.50000000  0.32690000  1
  Ti  Ti26  1  0.50000000  0.32690000  0.00000000  1
  Ti  Ti27  1  0.50000000  0.67310000  0.00000000  1
  Ti  Ti28  1  0.32690000  0.00000000  0.50000000  1
  Ti  Ti29  1  0.67310000  0.00000000  0.50000000  1
  H  H30  1  0.75590000  0.28860000  0.59200000  1
  H  H31  1  0.70880000  0.25790000  0.58440000  1
  H  H32  1  0.75210000  0.23660000  0.61430000  1
  H  H33  1  0.24410000  0.28860000  0.40800000  1
  H  H34  1  0.29120000  0.25790000  0.41560000  1
  H  H35  1  0.24790000  0.23660000  0.38570000  1
  H  H36  1  0.59200000  0.24410000  0.71140000  1
  H  H37  1  0.58440000  0.29120000  0.74210000  1
  H  H38  1  0.61430000  0.24790000  0.76340000  1
  H  H39  1  0.40800000  0.75590000  0.71140000  1
  H  H40  1  0.41560000  0.70880000  0.74210000  1
  H  H41  1  0.38570000  0.75210000  0.76340000  1
  H  H42  1  0.71140000  0.59200000  0.24410000  1
  H  H43  1  0.74210000  0.58440000  0.29120000  1
  H  H44  1  0.76340000  0.61430000  0.24790000  1
  H  H45  1  0.28860000  0.75590000  0.40800000  1
  H  H46  1  0.25790000  0.70880000  0.41560000  1
  H  H47  1  0.23660000  0.75210000  0.38570000  1
  H  H48  1  0.28860000  0.24410000  0.59200000  1
  H  H49  1  0.25790000  0.29120000  0.58440000  1
  H  H50  1  0.23660000  0.24790000  0.61430000  1
  H  H51  1  0.71140000  0.75590000  0.59200000  1
  H  H52  1  0.74210000  0.70880000  0.58440000  1
  H  H53  1  0.76340000  0.75210000  0.61430000  1
  H  H54  1  0.29120000  0.58440000  0.25790000  1
  H  H55  1  0.24410000  0.40800000  0.71140000  1
  H  H56  1  0.29120000  0.41560000  0.74210000  1
  H  H57  1  0.24790000  0.38570000  0.76340000  1
  H  H58  1  0.75590000  0.40800000  0.28860000  1
  H  H59  1  0.70880000  0.41560000  0.25790000  1
  H  H60  1  0.75590000  0.28860000  0.40800000  1
  H  H61  1  0.70880000  0.25790000  0.41560000  1
  H  H62  1  0.75210000  0.23660000  0.38570000  1
  H  H63  1  0.40800000  0.24410000  0.71140000  1
  H  H64  1  0.41560000  0.29120000  0.74210000  1
  H  H65  1  0.38570000  0.24790000  0.76340000  1
  H  H66  1  0.40800000  0.75590000  0.28860000  1
  H  H67  1  0.41560000  0.70880000  0.25790000  1
  H  H68  1  0.38570000  0.75210000  0.23660000  1
  H  H69  1  0.59200000  0.75590000  0.71140000  1
  H  H70  1  0.58440000  0.70880000  0.74210000  1
  H  H71  1  0.61430000  0.75210000  0.76340000  1
  H  H72  1  0.59200000  0.24410000  0.28860000  1
  H  H73  1  0.58440000  0.29120000  0.25790000  1
  H  H74  1  0.61430000  0.24790000  0.23660000  1
  H  H75  1  0.76340000  0.38570000  0.24790000  1
  H  H76  1  0.71140000  0.59200000  0.75590000  1
  H  H77  1  0.74210000  0.58440000  0.70880000  1
  H  H78  1  0.76340000  0.61430000  0.75210000  1
  H  H79  1  0.25790000  0.58440000  0.29120000  1
  H  H80  1  0.23660000  0.61430000  0.24790000  1
  H  H81  1  0.28860000  0.75590000  0.59200000  1
  H  H82  1  0.25790000  0.70880000  0.58440000  1
  H  H83  1  0.23660000  0.75210000  0.61430000  1
  H  H84  1  0.71140000  0.75590000  0.40800000  1
  H  H85  1  0.74210000  0.70880000  0.41560000  1
  H  H86  1  0.76340000  0.75210000  0.38570000  1
  H  H87  1  0.24410000  0.40800000  0.28860000  1
  H  H88  1  0.29120000  0.41560000  0.25790000  1
  H  H89  1  0.24790000  0.38570000  0.23660000  1
  H  H90  1  0.75590000  0.40800000  0.71140000  1
  H  H91  1  0.70880000  0.41560000  0.74210000  1
  H  H92  1  0.75210000  0.38570000  0.76340000  1
  H  H93  1  0.24410000  0.59200000  0.71140000  1
  H  H94  1  0.29120000  0.58440000  0.74210000  1
  H  H95  1  0.24790000  0.61430000  0.76340000  1
  H  H96  1  0.40800000  0.28860000  0.24410000  1
  H  H97  1  0.41560000  0.25790000  0.29120000  1
  H  H98  1  0.38570000  0.23660000  0.24790000  1
  H  H99  1  0.59200000  0.71140000  0.24410000  1
  H  H100  1  0.58440000  0.74210000  0.29120000  1
  H  H101  1  0.61430000  0.76340000  0.24790000  1
  H  H102  1  0.64330000  0.11260000  0.64330000  1
  H  H103  1  0.56800000  0.20640000  0.56800000  1
  H  H104  1  0.68270000  0.17270000  0.68270000  1
  H  H105  1  0.60670000  0.26690000  0.60670000  1
  H  H106  1  0.35670000  0.88740000  0.64330000  1
  H  H107  1  0.43200000  0.79360000  0.56800000  1
  H  H108  1  0.31730000  0.82730000  0.68270000  1
  H  H109  1  0.39330000  0.73310000  0.60670000  1
  H  H110  1  0.35670000  0.11260000  0.35670000  1
  H  H111  1  0.43200000  0.20640000  0.43200000  1
  H  H112  1  0.31730000  0.17270000  0.31730000  1
  H  H113  1  0.39330000  0.26690000  0.39330000  1
  H  H114  1  0.64330000  0.88740000  0.35670000  1
  H  H115  1  0.56800000  0.79360000  0.43200000  1
  H  H116  1  0.68270000  0.82730000  0.31730000  1
  H  H117  1  0.60670000  0.73310000  0.39330000  1
  H  H118  1  0.64330000  0.64330000  0.11260000  1
  H  H119  1  0.56800000  0.56800000  0.20640000  1
  H  H120  1  0.68270000  0.68270000  0.17270000  1
  H  H121  1  0.60670000  0.60670000  0.26690000  1
  H  H122  1  0.64330000  0.35670000  0.88740000  1
  H  H123  1  0.56800000  0.43200000  0.79360000  1
  H  H124  1  0.68270000  0.31730000  0.82730000  1
  H  H125  1  0.60670000  0.39330000  0.73310000  1
  H  H126  1  0.35670000  0.35670000  0.11260000  1
  H  H127  1  0.43200000  0.43200000  0.20640000  1
  H  H128  1  0.31730000  0.31730000  0.17270000  1
  H  H129  1  0.39330000  0.39330000  0.26690000  1
  H  H130  1  0.35670000  0.64330000  0.88740000  1
  H  H131  1  0.43200000  0.56800000  0.79360000  1
  H  H132  1  0.31730000  0.68270000  0.82730000  1
  H  H133  1  0.39330000  0.60670000  0.73310000  1
  H  H134  1  0.11260000  0.64330000  0.64330000  1
  H  H135  1  0.20640000  0.56800000  0.56800000  1
  H  H136  1  0.17270000  0.68270000  0.68270000  1
  H  H137  1  0.26690000  0.60670000  0.60670000  1
  H  H138  1  0.88740000  0.64330000  0.35670000  1
  H  H139  1  0.79360000  0.56800000  0.43200000  1
  H  H140  1  0.82730000  0.68270000  0.31730000  1
  H  H141  1  0.73310000  0.60670000  0.39330000  1
  H  H142  1  0.11260000  0.35670000  0.35670000  1
  H  H143  1  0.20640000  0.43200000  0.43200000  1
  H  H144  1  0.17270000  0.31730000  0.31730000  1
  H  H145  1  0.26690000  0.39330000  0.39330000  1
  H  H146  1  0.88740000  0.35670000  0.64330000  1
  H  H147  1  0.79360000  0.43200000  0.56800000  1
  H  H148  1  0.82730000  0.31730000  0.68270000  1
  H  H149  1  0.73310000  0.39330000  0.60670000  1
  H  H150  1  0.11260000  0.64330000  0.35670000  1
  H  H151  1  0.20640000  0.56800000  0.43200000  1
  H  H152  1  0.17270000  0.68270000  0.31730000  1
  H  H153  1  0.26690000  0.60670000  0.39330000  1
  H  H154  1  0.88740000  0.35670000  0.35670000  1
  H  H155  1  0.79360000  0.43200000  0.43200000  1
  H  H156  1  0.82730000  0.31730000  0.31730000  1
  H  H157  1  0.73310000  0.39330000  0.39330000  1
  H  H158  1  0.11260000  0.35670000  0.64330000  1
  H  H159  1  0.20640000  0.43200000  0.56800000  1
  H  H160  1  0.17270000  0.31730000  0.68270000  1
  H  H161  1  0.26690000  0.39330000  0.60670000  1
  H  H162  1  0.88740000  0.64330000  0.64330000  1
  H  H163  1  0.79360000  0.56800000  0.56800000  1
  H  H164  1  0.82730000  0.68270000  0.68270000  1
  H  H165  1  0.73310000  0.60670000  0.60670000  1
  H  H166  1  0.64330000  0.64330000  0.88740000  1
  H  H167  1  0.56800000  0.56800000  0.79360000  1
  H  H168  1  0.68270000  0.68270000  0.82730000  1
  H  H169  1  0.60670000  0.60670000  0.73310000  1
  H  H170  1  0.35670000  0.64330000  0.11260000  1
  H  H171  1  0.43200000  0.56800000  0.20640000  1
  H  H172  1  0.31730000  0.68270000  0.17270000  1
  H  H173  1  0.39330000  0.60670000  0.26690000  1
  H  H174  1  0.35670000  0.35670000  0.88740000  1
  H  H175  1  0.43200000  0.43200000  0.79360000  1
  H  H176  1  0.31730000  0.31730000  0.82730000  1
  H  H177  1  0.39330000  0.39330000  0.73310000  1
  H  H178  1  0.64330000  0.35670000  0.11260000  1
  H  H179  1  0.56800000  0.43200000  0.20640000  1
  H  H180  1  0.68270000  0.31730000  0.17270000  1
  H  H181  1  0.60670000  0.39330000  0.26690000  1
  H  H182  1  0.64330000  0.11260000  0.35670000  1
  H  H183  1  0.56800000  0.20640000  0.43200000  1
  H  H184  1  0.68270000  0.17270000  0.31730000  1
  H  H185  1  0.60670000  0.26690000  0.39330000  1
  H  H186  1  0.64330000  0.88740000  0.64330000  1
  H  H187  1  0.56800000  0.79360000  0.56800000  1
  H  H188  1  0.68270000  0.82730000  0.68270000  1
  H  H189  1  0.60670000  0.73310000  0.60670000  1
  H  H190  1  0.35670000  0.11260000  0.64330000  1
  H  H191  1  0.43200000  0.20640000  0.56800000  1
  H  H192  1  0.31730000  0.17270000  0.68270000  1
  H  H193  1  0.39330000  0.26690000  0.60670000  1
  H  H194  1  0.35670000  0.88740000  0.35670000  1
  H  H195  1  0.43200000  0.79360000  0.43200000  1
  H  H196  1  0.31730000  0.82730000  0.31730000  1
  H  H197  1  0.39330000  0.73310000  0.39330000  1
  C  C198  1  0.57770000  0.11340000  0.57770000  1
  C  C199  1  0.60290000  0.15190000  0.60290000  1
  C  C200  1  0.63570000  0.14450000  0.63570000  1
  C  C201  1  0.59130000  0.19950000  0.59130000  1
  C  C202  1  0.65950000  0.18030000  0.65950000  1
  C  C203  1  0.61440000  0.23500000  0.61440000  1
  C  C204  1  0.64930000  0.22650000  0.64930000  1
  C  C205  1  0.67280000  0.26690000  0.67280000  1
  C  C206  1  0.42230000  0.88660000  0.57770000  1
  C  C207  1  0.39710000  0.84810000  0.60290000  1
  C  C208  1  0.36430000  0.85550000  0.63570000  1
  C  C209  1  0.40870000  0.80050000  0.59130000  1
  C  C210  1  0.34050000  0.81970000  0.65950000  1
  C  C211  1  0.38560000  0.76500000  0.61440000  1
  C  C212  1  0.35070000  0.77350000  0.64930000  1
  C  C213  1  0.32720000  0.73310000  0.67280000  1
  C  C214  1  0.42230000  0.11340000  0.42230000  1
  C  C215  1  0.39710000  0.15190000  0.39710000  1
  C  C216  1  0.36430000  0.14450000  0.36430000  1
  C  C217  1  0.40870000  0.19950000  0.40870000  1
  C  C218  1  0.34050000  0.18030000  0.34050000  1
  C  C219  1  0.38560000  0.23500000  0.38560000  1
  C  C220  1  0.35070000  0.22650000  0.35070000  1
  C  C221  1  0.32720000  0.26690000  0.32720000  1
  C  C222  1  0.57770000  0.88660000  0.42230000  1
  C  C223  1  0.60290000  0.84810000  0.39710000  1
  C  C224  1  0.63570000  0.85550000  0.36430000  1
  C  C225  1  0.59130000  0.80050000  0.40870000  1
  C  C226  1  0.65950000  0.81970000  0.34050000  1
  C  C227  1  0.61440000  0.76500000  0.38560000  1
  C  C228  1  0.64930000  0.77350000  0.35070000  1
  C  C229  1  0.67280000  0.73310000  0.32720000  1
  C  C230  1  0.57770000  0.57770000  0.11340000  1
  C  C231  1  0.60290000  0.60290000  0.15190000  1
  C  C232  1  0.63570000  0.63570000  0.14450000  1
  C  C233  1  0.59130000  0.59130000  0.19950000  1
  C  C234  1  0.65950000  0.65950000  0.18030000  1
  C  C235  1  0.61440000  0.61440000  0.23500000  1
  C  C236  1  0.64930000  0.64930000  0.22650000  1
  C  C237  1  0.67280000  0.67280000  0.26690000  1
  C  C238  1  0.57770000  0.42230000  0.88660000  1
  C  C239  1  0.60290000  0.39710000  0.84810000  1
  C  C240  1  0.63570000  0.36430000  0.85550000  1
  C  C241  1  0.59130000  0.40870000  0.80050000  1
  C  C242  1  0.65950000  0.34050000  0.81970000  1
  C  C243  1  0.61440000  0.38560000  0.76500000  1
  C  C244  1  0.64930000  0.35070000  0.77350000  1
  C  C245  1  0.67280000  0.32720000  0.73310000  1
  C  C246  1  0.42230000  0.42230000  0.11340000  1
  C  C247  1  0.39710000  0.39710000  0.15190000  1
  C  C248  1  0.36430000  0.36430000  0.14450000  1
  C  C249  1  0.40870000  0.40870000  0.19950000  1
  C  C250  1  0.34050000  0.34050000  0.18030000  1
  C  C251  1  0.38560000  0.38560000  0.23500000  1
  C  C252  1  0.35070000  0.35070000  0.22650000  1
  C  C253  1  0.32720000  0.32720000  0.26690000  1
  C  C254  1  0.42230000  0.57770000  0.88660000  1
  C  C255  1  0.39710000  0.60290000  0.84810000  1
  C  C256  1  0.36430000  0.63570000  0.85550000  1
  C  C257  1  0.40870000  0.59130000  0.80050000  1
  C  C258  1  0.34050000  0.65950000  0.81970000  1
  C  C259  1  0.38560000  0.61440000  0.76500000  1
  C  C260  1  0.35070000  0.64930000  0.77350000  1
  C  C261  1  0.32720000  0.67280000  0.73310000  1
  C  C262  1  0.11340000  0.57770000  0.57770000  1
  C  C263  1  0.15190000  0.60290000  0.60290000  1
  C  C264  1  0.14450000  0.63570000  0.63570000  1
  C  C265  1  0.19950000  0.59130000  0.59130000  1
  C  C266  1  0.18030000  0.65950000  0.65950000  1
  C  C267  1  0.23500000  0.61440000  0.61440000  1
  C  C268  1  0.22650000  0.64930000  0.64930000  1
  C  C269  1  0.26690000  0.67280000  0.67280000  1
  C  C270  1  0.88660000  0.57770000  0.42230000  1
  C  C271  1  0.84810000  0.60290000  0.39710000  1
  C  C272  1  0.85550000  0.63570000  0.36430000  1
  C  C273  1  0.80050000  0.59130000  0.40870000  1
  C  C274  1  0.81970000  0.65950000  0.34050000  1
  C  C275  1  0.76500000  0.61440000  0.38560000  1
  C  C276  1  0.77350000  0.64930000  0.35070000  1
  C  C277  1  0.73310000  0.67280000  0.32720000  1
  C  C278  1  0.11340000  0.42230000  0.42230000  1
  C  C279  1  0.15190000  0.39710000  0.39710000  1
  C  C280  1  0.14450000  0.36430000  0.36430000  1
  C  C281  1  0.19950000  0.40870000  0.40870000  1
  C  C282  1  0.18030000  0.34050000  0.34050000  1
  C  C283  1  0.23500000  0.38560000  0.38560000  1
  C  C284  1  0.22650000  0.35070000  0.35070000  1
  C  C285  1  0.26690000  0.32720000  0.32720000  1
  C  C286  1  0.88660000  0.42230000  0.57770000  1
  C  C287  1  0.84810000  0.39710000  0.60290000  1
  C  C288  1  0.85550000  0.36430000  0.63570000  1
  C  C289  1  0.80050000  0.40870000  0.59130000  1
  C  C290  1  0.81970000  0.34050000  0.65950000  1
  C  C291  1  0.76500000  0.38560000  0.61440000  1
  C  C292  1  0.77350000  0.35070000  0.64930000  1
  C  C293  1  0.73310000  0.32720000  0.67280000  1
  C  C294  1  0.11340000  0.57770000  0.42230000  1
  C  C295  1  0.15190000  0.60290000  0.39710000  1
  C  C296  1  0.14450000  0.63570000  0.36430000  1
  C  C297  1  0.19950000  0.59130000  0.40870000  1
  C  C298  1  0.18030000  0.65950000  0.34050000  1
  C  C299  1  0.23500000  0.61440000  0.38560000  1
  C  C300  1  0.22650000  0.64930000  0.35070000  1
  C  C301  1  0.26690000  0.67280000  0.32720000  1
  C  C302  1  0.88660000  0.42230000  0.42230000  1
  C  C303  1  0.84810000  0.39710000  0.39710000  1
  C  C304  1  0.85550000  0.36430000  0.36430000  1
  C  C305  1  0.80050000  0.40870000  0.40870000  1
  C  C306  1  0.81970000  0.34050000  0.34050000  1
  C  C307  1  0.76500000  0.38560000  0.38560000  1
  C  C308  1  0.77350000  0.35070000  0.35070000  1
  C  C309  1  0.73310000  0.32720000  0.32720000  1
  C  C310  1  0.11340000  0.42230000  0.57770000  1
  C  C311  1  0.15190000  0.39710000  0.60290000  1
  C  C312  1  0.14450000  0.36430000  0.63570000  1
  C  C313  1  0.19950000  0.40870000  0.59130000  1
  C  C314  1  0.18030000  0.34050000  0.65950000  1
  C  C315  1  0.23500000  0.38560000  0.61440000  1
  C  C316  1  0.22650000  0.35070000  0.64930000  1
  C  C317  1  0.26690000  0.32720000  0.67280000  1
  C  C318  1  0.88660000  0.57770000  0.57770000  1
  C  C319  1  0.84810000  0.60290000  0.60290000  1
  C  C320  1  0.85550000  0.63570000  0.63570000  1
  C  C321  1  0.80050000  0.59130000  0.59130000  1
  C  C322  1  0.81970000  0.65950000  0.65950000  1
  C  C323  1  0.76500000  0.61440000  0.61440000  1
  C  C324  1  0.77350000  0.64930000  0.64930000  1
  C  C325  1  0.73310000  0.67280000  0.67280000  1
  C  C326  1  0.57770000  0.57770000  0.88660000  1
  C  C327  1  0.60290000  0.60290000  0.84810000  1
  C  C328  1  0.63570000  0.63570000  0.85550000  1
  C  C329  1  0.59130000  0.59130000  0.80050000  1
  C  C330  1  0.65950000  0.65950000  0.81970000  1
  C  C331  1  0.61440000  0.61440000  0.76500000  1
  C  C332  1  0.64930000  0.64930000  0.77350000  1
  C  C333  1  0.67280000  0.67280000  0.73310000  1
  C  C334  1  0.42230000  0.57770000  0.11340000  1
  C  C335  1  0.39710000  0.60290000  0.15190000  1
  C  C336  1  0.36430000  0.63570000  0.14450000  1
  C  C337  1  0.40870000  0.59130000  0.19950000  1
  C  C338  1  0.34050000  0.65950000  0.18030000  1
  C  C339  1  0.38560000  0.61440000  0.23500000  1
  C  C340  1  0.35070000  0.64930000  0.22650000  1
  C  C341  1  0.32720000  0.67280000  0.26690000  1
  C  C342  1  0.42230000  0.42230000  0.88660000  1
  C  C343  1  0.39710000  0.39710000  0.84810000  1
  C  C344  1  0.36430000  0.36430000  0.85550000  1
  C  C345  1  0.40870000  0.40870000  0.80050000  1
  C  C346  1  0.34050000  0.34050000  0.81970000  1
  C  C347  1  0.38560000  0.38560000  0.76500000  1
  C  C348  1  0.35070000  0.35070000  0.77350000  1
  C  C349  1  0.32720000  0.32720000  0.73310000  1
  C  C350  1  0.57770000  0.42230000  0.11340000  1
  C  C351  1  0.60290000  0.39710000  0.15190000  1
  C  C352  1  0.63570000  0.36430000  0.14450000  1
  C  C353  1  0.59130000  0.40870000  0.19950000  1
  C  C354  1  0.65950000  0.34050000  0.18030000  1
  C  C355  1  0.61440000  0.38560000  0.23500000  1
  C  C356  1  0.64930000  0.35070000  0.22650000  1
  C  C357  1  0.67280000  0.32720000  0.26690000  1
  C  C358  1  0.57770000  0.11340000  0.42230000  1
  C  C359  1  0.60290000  0.15190000  0.39710000  1
  C  C360  1  0.63570000  0.14450000  0.36430000  1
  C  C361  1  0.59130000  0.19950000  0.40870000  1
  C  C362  1  0.65950000  0.18030000  0.34050000  1
  C  C363  1  0.61440000  0.23500000  0.38560000  1
  C  C364  1  0.64930000  0.22650000  0.35070000  1
  C  C365  1  0.67280000  0.26690000  0.32720000  1
  C  C366  1  0.57770000  0.88660000  0.57770000  1
  C  C367  1  0.60290000  0.84810000  0.60290000  1
  C  C368  1  0.63570000  0.85550000  0.63570000  1
  C  C369  1  0.59130000  0.80050000  0.59130000  1
  C  C370  1  0.65950000  0.81970000  0.65950000  1
  C  C371  1  0.61440000  0.76500000  0.61440000  1
  C  C372  1  0.64930000  0.77350000  0.64930000  1
  C  C373  1  0.67280000  0.73310000  0.67280000  1
  C  C374  1  0.42230000  0.11340000  0.57770000  1
  C  C375  1  0.39710000  0.15190000  0.60290000  1
  C  C376  1  0.36430000  0.14450000  0.63570000  1
  C  C377  1  0.40870000  0.19950000  0.59130000  1
  C  C378  1  0.34050000  0.18030000  0.65950000  1
  C  C379  1  0.38560000  0.23500000  0.61440000  1
  C  C380  1  0.35070000  0.22650000  0.64930000  1
  C  C381  1  0.32720000  0.26690000  0.67280000  1
  C  C382  1  0.42230000  0.88660000  0.42230000  1
  C  C383  1  0.39710000  0.84810000  0.39710000  1
  C  C384  1  0.36430000  0.85550000  0.36430000  1
  C  C385  1  0.40870000  0.80050000  0.40870000  1
  C  C386  1  0.34050000  0.81970000  0.34050000  1
  C  C387  1  0.38560000  0.76500000  0.38560000  1
  C  C388  1  0.35070000  0.77350000  0.35070000  1
  C  C389  1  0.32720000  0.73310000  0.32720000  1
  C  C390  1  0.71280000  0.28720000  0.65340000  1
  C  C391  1  0.73450000  0.26550000  0.60660000  1
  C  C392  1  0.28720000  0.71280000  0.65340000  1
  C  C393  1  0.26550000  0.73450000  0.60660000  1
  C  C394  1  0.28720000  0.28720000  0.34660000  1
  C  C395  1  0.26550000  0.26550000  0.39340000  1
  C  C396  1  0.71280000  0.71280000  0.34660000  1
  C  C397  1  0.73450000  0.73450000  0.39340000  1
  C  C398  1  0.65340000  0.71280000  0.28720000  1
  C  C399  1  0.60660000  0.73450000  0.26550000  1
  C  C400  1  0.65340000  0.28720000  0.71280000  1
  C  C401  1  0.60660000  0.26550000  0.73450000  1
  C  C402  1  0.34660000  0.28720000  0.28720000  1
  C  C403  1  0.39340000  0.26550000  0.26550000  1
  C  C404  1  0.34660000  0.71280000  0.71280000  1
  C  C405  1  0.39340000  0.73450000  0.73450000  1
  C  C406  1  0.28720000  0.65340000  0.71280000  1
  C  C407  1  0.26550000  0.60660000  0.73450000  1
  C  C408  1  0.71280000  0.65340000  0.28720000  1
  C  C409  1  0.73450000  0.60660000  0.26550000  1
  C  C410  1  0.28720000  0.34660000  0.28720000  1
  C  C411  1  0.26550000  0.39340000  0.26550000  1
  C  C412  1  0.71280000  0.34660000  0.71280000  1
  C  C413  1  0.73450000  0.39340000  0.73450000  1
  C  C414  1  0.28720000  0.71280000  0.34660000  1
  C  C415  1  0.26550000  0.73450000  0.39340000  1
  C  C416  1  0.71280000  0.28720000  0.34660000  1
  C  C417  1  0.73450000  0.26550000  0.39340000  1
  C  C418  1  0.28720000  0.28720000  0.65340000  1
  C  C419  1  0.26550000  0.26550000  0.60660000  1
  C  C420  1  0.71280000  0.71280000  0.65340000  1
  C  C421  1  0.73450000  0.73450000  0.60660000  1
  C  C422  1  0.71280000  0.65340000  0.71280000  1
  C  C423  1  0.73450000  0.60660000  0.73450000  1
  C  C424  1  0.28720000  0.65340000  0.28720000  1
  C  C425  1  0.26550000  0.60660000  0.26550000  1
  C  C426  1  0.28720000  0.34660000  0.71280000  1
  C  C427  1  0.26550000  0.39340000  0.73450000  1
  C  C428  1  0.71280000  0.34660000  0.28720000  1
  C  C429  1  0.73450000  0.39340000  0.26550000  1
  C  C430  1  0.65340000  0.28720000  0.28720000  1
  C  C431  1  0.60660000  0.26550000  0.26550000  1
  C  C432  1  0.65340000  0.71280000  0.71280000  1
  C  C433  1  0.60660000  0.73450000  0.73450000  1
  C  C434  1  0.34660000  0.28720000  0.71280000  1
  C  C435  1  0.39340000  0.26550000  0.73450000  1
  C  C436  1  0.34660000  0.71280000  0.28720000  1
  C  C437  1  0.39340000  0.73450000  0.26550000  1
  O  O438  1  0.54820000  0.12600000  0.54820000  1
  O  O439  1  0.58770000  0.07130000  0.58770000  1
  O  O440  1  0.45180000  0.87400000  0.54820000  1
  O  O441  1  0.41230000  0.92870000  0.58770000  1
  O  O442  1  0.45180000  0.12600000  0.45180000  1
  O  O443  1  0.41230000  0.07130000  0.41230000  1
  O  O444  1  0.54820000  0.87400000  0.45180000  1
  O  O445  1  0.58770000  0.92870000  0.41230000  1
  O  O446  1  0.54820000  0.54820000  0.12600000  1
  O  O447  1  0.58770000  0.58770000  0.07130000  1
  O  O448  1  0.54820000  0.45180000  0.87400000  1
  O  O449  1  0.58770000  0.41230000  0.92870000  1
  O  O450  1  0.45180000  0.45180000  0.12600000  1
  O  O451  1  0.41230000  0.41230000  0.07130000  1
  O  O452  1  0.45180000  0.54820000  0.87400000  1
  O  O453  1  0.41230000  0.58770000  0.92870000  1
  O  O454  1  0.12600000  0.54820000  0.54820000  1
  O  O455  1  0.07130000  0.58770000  0.58770000  1
  O  O456  1  0.87400000  0.54820000  0.45180000  1
  O  O457  1  0.92870000  0.58770000  0.41230000  1
  O  O458  1  0.12600000  0.45180000  0.45180000  1
  O  O459  1  0.07130000  0.41230000  0.41230000  1
  O  O460  1  0.87400000  0.45180000  0.54820000  1
  O  O461  1  0.92870000  0.41230000  0.58770000  1
  O  O462  1  0.12600000  0.54820000  0.45180000  1
  O  O463  1  0.07130000  0.58770000  0.41230000  1
  O  O464  1  0.87400000  0.45180000  0.45180000  1
  O  O465  1  0.92870000  0.41230000  0.41230000  1
  O  O466  1  0.12600000  0.45180000  0.54820000  1
  O  O467  1  0.07130000  0.41230000  0.58770000  1
  O  O468  1  0.87400000  0.54820000  0.54820000  1
  O  O469  1  0.92870000  0.58770000  0.58770000  1
  O  O470  1  0.54820000  0.54820000  0.87400000  1
  O  O471  1  0.58770000  0.58770000  0.92870000  1
  O  O472  1  0.45180000  0.54820000  0.12600000  1
  O  O473  1  0.41230000  0.58770000  0.07130000  1
  O  O474  1  0.45180000  0.45180000  0.87400000  1
  O  O475  1  0.41230000  0.41230000  0.92870000  1
  O  O476  1  0.54820000  0.45180000  0.12600000  1
  O  O477  1  0.58770000  0.41230000  0.07130000  1
  O  O478  1  0.54820000  0.12600000  0.45180000  1
  O  O479  1  0.58770000  0.07130000  0.41230000  1
  O  O480  1  0.54820000  0.87400000  0.54820000  1
  O  O481  1  0.58770000  0.92870000  0.58770000  1
  O  O482  1  0.45180000  0.12600000  0.54820000  1
  O  O483  1  0.41230000  0.07130000  0.58770000  1
  O  O484  1  0.45180000  0.87400000  0.45180000  1
  O  O485  1  0.41230000  0.92870000  0.41230000  1
  O  O486  1  0.50000000  0.04320000  0.43680000  1
  O  O487  1  0.50000000  0.07940000  0.31980000  1
  O  O488  1  0.50000000  0.95680000  0.43680000  1
  O  O489  1  0.50000000  0.92060000  0.31980000  1
  O  O490  1  0.50000000  0.04320000  0.56320000  1
  O  O491  1  0.50000000  0.07940000  0.68020000  1
  O  O492  1  0.50000000  0.95680000  0.56320000  1
  O  O493  1  0.50000000  0.92060000  0.68020000  1
  O  O494  1  0.43680000  0.50000000  0.04320000  1
  O  O495  1  0.31980000  0.50000000  0.07940000  1
  O  O496  1  0.43680000  0.50000000  0.95680000  1
  O  O497  1  0.31980000  0.50000000  0.92060000  1
  O  O498  1  0.56320000  0.50000000  0.04320000  1
  O  O499  1  0.68020000  0.50000000  0.07940000  1
  O  O500  1  0.56320000  0.50000000  0.95680000  1
  O  O501  1  0.68020000  0.50000000  0.92060000  1
  O  O502  1  0.04320000  0.43680000  0.50000000  1
  O  O503  1  0.07940000  0.31980000  0.50000000  1
  O  O504  1  0.95680000  0.43680000  0.50000000  1
  O  O505  1  0.92060000  0.31980000  0.50000000  1
  O  O506  1  0.04320000  0.56320000  0.50000000  1
  O  O507  1  0.07940000  0.68020000  0.50000000  1
  O  O508  1  0.95680000  0.56320000  0.50000000  1
  O  O509  1  0.92060000  0.68020000  0.50000000  1
  O  O510  1  0.04320000  0.50000000  0.56320000  1
  O  O511  1  0.07940000  0.50000000  0.68020000  1
  O  O512  1  0.95680000  0.50000000  0.56320000  1
  O  O513  1  0.92060000  0.50000000  0.68020000  1
  O  O514  1  0.04320000  0.50000000  0.43680000  1
  O  O515  1  0.07940000  0.50000000  0.31980000  1
  O  O516  1  0.95680000  0.50000000  0.43680000  1
  O  O517  1  0.92060000  0.50000000  0.31980000  1
  O  O518  1  0.50000000  0.43680000  0.95680000  1
  O  O519  1  0.50000000  0.31980000  0.92060000  1
  O  O520  1  0.50000000  0.43680000  0.04320000  1
  O  O521  1  0.50000000  0.31980000  0.07940000  1
  O  O522  1  0.50000000  0.56320000  0.95680000  1
  O  O523  1  0.50000000  0.68020000  0.92060000  1
  O  O524  1  0.50000000  0.56320000  0.04320000  1
  O  O525  1  0.50000000  0.68020000  0.07940000  1
  O  O526  1  0.43680000  0.04320000  0.50000000  1
  O  O527  1  0.31980000  0.07940000  0.50000000  1
  O  O528  1  0.43680000  0.95680000  0.50000000  1
  O  O529  1  0.31980000  0.92060000  0.50000000  1
  O  O530  1  0.56320000  0.04320000  0.50000000  1
  O  O531  1  0.68020000  0.07940000  0.50000000  1
  O  O532  1  0.56320000  0.95680000  0.50000000  1
  O  O533  1  0.68020000  0.92060000  0.50000000  1
  O  O534  1  0.44450000  0.00000000  0.36240000  1
  O  O535  1  0.44060000  0.00000000  0.26770000  1
  O  O536  1  0.55550000  0.00000000  0.36240000  1
  O  O537  1  0.55940000  0.00000000  0.26770000  1
  O  O538  1  0.55550000  0.00000000  0.63760000  1
  O  O539  1  0.55940000  0.00000000  0.73230000  1
  O  O540  1  0.44450000  0.00000000  0.63760000  1
  O  O541  1  0.44060000  0.00000000  0.73230000  1
  O  O542  1  0.36240000  0.44450000  0.00000000  1
  O  O543  1  0.26770000  0.44060000  0.00000000  1
  O  O544  1  0.36240000  0.55550000  0.00000000  1
  O  O545  1  0.26770000  0.55940000  0.00000000  1
  O  O546  1  0.63760000  0.55550000  0.00000000  1
  O  O547  1  0.73230000  0.55940000  0.00000000  1
  O  O548  1  0.63760000  0.44450000  0.00000000  1
  O  O549  1  0.73230000  0.44060000  0.00000000  1
  O  O550  1  0.00000000  0.36240000  0.44450000  1
  O  O551  1  0.00000000  0.26770000  0.44060000  1
  O  O552  1  0.00000000  0.36240000  0.55550000  1
  O  O553  1  0.00000000  0.26770000  0.55940000  1
  O  O554  1  0.00000000  0.63760000  0.55550000  1
  O  O555  1  0.00000000  0.73230000  0.55940000  1
  O  O556  1  0.00000000  0.63760000  0.44450000  1
  O  O557  1  0.00000000  0.73230000  0.44060000  1
  O  O558  1  0.00000000  0.44450000  0.63760000  1
  O  O559  1  0.00000000  0.44060000  0.73230000  1
  O  O560  1  0.00000000  0.55550000  0.63760000  1
  O  O561  1  0.00000000  0.55940000  0.73230000  1
  O  O562  1  0.00000000  0.55550000  0.36240000  1
  O  O563  1  0.00000000  0.55940000  0.26770000  1
  O  O564  1  0.00000000  0.44450000  0.36240000  1
  O  O565  1  0.00000000  0.44060000  0.26770000  1
  O  O566  1  0.44450000  0.36240000  0.00000000  1
  O  O567  1  0.44060000  0.26770000  0.00000000  1
  O  O568  1  0.55550000  0.36240000  0.00000000  1
  O  O569  1  0.55940000  0.26770000  0.00000000  1
  O  O570  1  0.55550000  0.63760000  0.00000000  1
  O  O571  1  0.55940000  0.73230000  0.00000000  1
  O  O572  1  0.44450000  0.63760000  0.00000000  1
  O  O573  1  0.44060000  0.73230000  0.00000000  1
  O  O574  1  0.36240000  0.00000000  0.55550000  1
  O  O575  1  0.26770000  0.00000000  0.55940000  1
  O  O576  1  0.36240000  0.00000000  0.44450000  1
  O  O577  1  0.26770000  0.00000000  0.44060000  1
  O  O578  1  0.63760000  0.00000000  0.44450000  1
  O  O579  1  0.73230000  0.00000000  0.44060000  1
  O  O580  1  0.63760000  0.00000000  0.55550000  1
  O  O581  1  0.73230000  0.00000000  0.55940000  1
