# generated using pymatgen
data_Zr24Re32H121C192(N3O16)8
_symmetry_space_group_name_H-M   'P 1'
_cell_length_a   20.78200000
_cell_length_b   20.78200000
_cell_length_c   20.78200000
_cell_angle_alpha   90.00000000
_cell_angle_beta   90.00000000
_cell_angle_gamma   90.00000000
_symmetry_Int_Tables_number   1
_chemical_formula_structural   Zr24Re32H121C192(N3O16)8
_chemical_formula_sum   'Zr24 Re32 H121 C192 N24 O128'
_cell_volume   8975.56965177
_cell_formula_units_Z   1
loop_
 _symmetry_equiv_pos_site_id
 _symmetry_equiv_pos_as_xyz
  1  'x, y, z'
loop_
 _atom_site_type_symbol
 _atom_site_label
 _atom_site_symmetry_multiplicity
 _atom_site_fract_x
 _atom_site_fract_y
 _atom_site_fract_z
 _atom_site_occupancy
  Zr  Zr0  1  0.12048000  0.00000000  0.00000000  1
  Zr  Zr1  1  0.12048000  0.50000000  0.50000000  1
  Zr  Zr2  1  0.62048000  0.00000000  0.50000000  1
  Zr  Zr3  1  0.62048000  0.50000000  0.00000000  1
  Zr  Zr4  1  0.87952000  0.00000000  0.00000000  1
  Zr  Zr5  1  0.87952000  0.50000000  0.50000000  1
  Zr  Zr6  1  0.37952000  0.00000000  0.50000000  1
  Zr  Zr7  1  0.37952000  0.50000000  0.00000000  1
  Zr  Zr8  1  0.00000000  0.12048000  0.00000000  1
  Zr  Zr9  1  0.00000000  0.62048000  0.50000000  1
  Zr  Zr10  1  0.50000000  0.12048000  0.50000000  1
  Zr  Zr11  1  0.50000000  0.62048000  0.00000000  1
  Zr  Zr12  1  0.00000000  0.87952000  0.00000000  1
  Zr  Zr13  1  0.00000000  0.37952000  0.50000000  1
  Zr  Zr14  1  0.50000000  0.87952000  0.50000000  1
  Zr  Zr15  1  0.50000000  0.37952000  0.00000000  1
  Zr  Zr16  1  0.00000000  0.00000000  0.12048000  1
  Zr  Zr17  1  0.00000000  0.50000000  0.62048000  1
  Zr  Zr18  1  0.50000000  0.00000000  0.62048000  1
  Zr  Zr19  1  0.50000000  0.50000000  0.12048000  1
  Zr  Zr20  1  0.00000000  0.00000000  0.87952000  1
  Zr  Zr21  1  0.00000000  0.50000000  0.37952000  1
  Zr  Zr22  1  0.50000000  0.00000000  0.37952000  1
  Zr  Zr23  1  0.50000000  0.50000000  0.87952000  1
  Re  Re24  1  0.14800000  0.14800000  0.14800000  1
  Re  Re25  1  0.14800000  0.64800000  0.64800000  1
  Re  Re26  1  0.64800000  0.14800000  0.64800000  1
  Re  Re27  1  0.64800000  0.64800000  0.14800000  1
  Re  Re28  1  0.85200000  0.85200000  0.14800000  1
  Re  Re29  1  0.85200000  0.35200000  0.64800000  1
  Re  Re30  1  0.35200000  0.85200000  0.64800000  1
  Re  Re31  1  0.35200000  0.35200000  0.14800000  1
  Re  Re32  1  0.85200000  0.14800000  0.85200000  1
  Re  Re33  1  0.85200000  0.64800000  0.35200000  1
  Re  Re34  1  0.35200000  0.14800000  0.35200000  1
  Re  Re35  1  0.35200000  0.64800000  0.85200000  1
  Re  Re36  1  0.14800000  0.85200000  0.85200000  1
  Re  Re37  1  0.14800000  0.35200000  0.35200000  1
  Re  Re38  1  0.64800000  0.85200000  0.35200000  1
  Re  Re39  1  0.64800000  0.35200000  0.85200000  1
  Re  Re40  1  0.14800000  0.14800000  0.85200000  1
  Re  Re41  1  0.14800000  0.64800000  0.35200000  1
  Re  Re42  1  0.64800000  0.14800000  0.35200000  1
  Re  Re43  1  0.64800000  0.64800000  0.85200000  1
  Re  Re44  1  0.85200000  0.85200000  0.85200000  1
  Re  Re45  1  0.85200000  0.35200000  0.35200000  1
  Re  Re46  1  0.35200000  0.85200000  0.35200000  1
  Re  Re47  1  0.35200000  0.35200000  0.85200000  1
  Re  Re48  1  0.14800000  0.85200000  0.14800000  1
  Re  Re49  1  0.14800000  0.35200000  0.64800000  1
  Re  Re50  1  0.64800000  0.85200000  0.64800000  1
  Re  Re51  1  0.64800000  0.35200000  0.14800000  1
  Re  Re52  1  0.85200000  0.14800000  0.14800000  1
  Re  Re53  1  0.85200000  0.64800000  0.64800000  1
  Re  Re54  1  0.35200000  0.14800000  0.64800000  1
  Re  Re55  1  0.35200000  0.64800000  0.14800000  1
  H  H56  1  0.63070000  0.72132000  0.50000000  1
  H  H57  1  0.86930000  0.77868000  0.50000000  1
  H  H58  1  0.54626000  0.59591000  0.70881000  1
  H  H59  1  0.45374000  0.59591000  0.70881000  1
  H  H60  1  0.50000000  0.86930000  0.77868000  1
  H  H61  1  0.50000000  0.77868000  0.86930000  1
  H  H62  1  0.50000000  0.72132000  0.63070000  1
  H  H63  1  0.75207000  0.58433000  0.48842000  1
  H  H64  1  0.66555000  0.60749000  0.51158000  1
  H  H65  1  0.77868000  0.86930000  0.50000000  1
  H  H66  1  0.96786000  0.60451000  0.17668000  1
  H  H67  1  0.03214000  0.58731000  0.24095000  1
  H  H68  1  0.00000000  0.86930000  0.27868000  1
  H  H69  1  0.00000000  0.77868000  0.36930000  1
  H  H70  1  0.00000000  0.72132000  0.13070000  1
  H  H71  1  0.13070000  0.72132000  0.00000000  1
  H  H72  1  0.36930000  0.77868000  0.00000000  1
  H  H73  1  0.25207000  0.58433000  0.98842000  1
  H  H74  1  0.16555000  0.60749000  0.01158000  1
  H  H75  1  0.27868000  0.86930000  0.00000000  1
  H  H76  1  0.00000000  0.63070000  0.77868000  1
  H  H77  1  0.00000000  0.86930000  0.72132000  1
  H  H78  1  0.00000000  0.72132000  0.86930000  1
  H  H79  1  0.98842000  0.74793000  0.58433000  1
  H  H80  1  0.01158000  0.83445000  0.60749000  1
  H  H81  1  0.58731000  0.75905000  0.96786000  1
  H  H82  1  0.60451000  0.82332000  0.03214000  1
  H  H83  1  0.86930000  0.72132000  0.00000000  1
  H  H84  1  0.77868000  0.63070000  0.00000000  1
  H  H85  1  0.72132000  0.86930000  0.00000000  1
  H  H86  1  0.63070000  0.27868000  0.50000000  1
  H  H87  1  0.86930000  0.22132000  0.50000000  1
  H  H88  1  0.50000000  0.13070000  0.77868000  1
  H  H89  1  0.45374000  0.40409000  0.70881000  1
  H  H90  1  0.54626000  0.40409000  0.70881000  1
  H  H91  1  0.50000000  0.22132000  0.86930000  1
  H  H92  1  0.50000000  0.27868000  0.63070000  1
  H  H93  1  0.77868000  0.13070000  0.50000000  1
  H  H94  1  0.66555000  0.39251000  0.48842000  1
  H  H95  1  0.75207000  0.41567000  0.51158000  1
  H  H96  1  0.00000000  0.13070000  0.27868000  1
  H  H97  1  0.96786000  0.39549000  0.17668000  1
  H  H98  1  0.03214000  0.41269000  0.24095000  1
  H  H99  1  0.00000000  0.22132000  0.36930000  1
  H  H100  1  0.00000000  0.27868000  0.13070000  1
  H  H101  1  0.13070000  0.27868000  0.00000000  1
  H  H102  1  0.36930000  0.22132000  0.00000000  1
  H  H103  1  0.27868000  0.13070000  0.00000000  1
  H  H104  1  0.16555000  0.39251000  0.98842000  1
  H  H105  1  0.25207000  0.41567000  0.01158000  1
  H  H106  1  0.00000000  0.13070000  0.72132000  1
  H  H107  1  0.00000000  0.36930000  0.77868000  1
  H  H108  1  0.00000000  0.27868000  0.86930000  1
  H  H109  1  0.98842000  0.25207000  0.58433000  1
  H  H110  1  0.01158000  0.16555000  0.60749000  1
  H  H111  1  0.60451000  0.17668000  0.96786000  1
  H  H112  1  0.58731000  0.24095000  0.03214000  1
  H  H113  1  0.86930000  0.27868000  0.00000000  1
  H  H114  1  0.72132000  0.13070000  0.00000000  1
  H  H115  1  0.77868000  0.36930000  0.00000000  1
  H  H116  1  0.77868000  0.00000000  0.63070000  1
  H  H117  1  0.72132000  0.50000000  0.63070000  1
  H  H118  1  0.72132000  0.00000000  0.86930000  1
  H  H119  1  0.77868000  0.50000000  0.86930000  1
  H  H120  1  0.60451000  0.46786000  0.67668000  1
  H  H121  1  0.58731000  0.53214000  0.74095000  1
  H  H122  1  0.58731000  0.96786000  0.75905000  1
  H  H123  1  0.60451000  0.03214000  0.82332000  1
  H  H124  1  0.86930000  0.50000000  0.77868000  1
  H  H125  1  0.86930000  0.00000000  0.72132000  1
  H  H126  1  0.27868000  0.50000000  0.63070000  1
  H  H127  1  0.22132000  0.00000000  0.63070000  1
  H  H128  1  0.22132000  0.50000000  0.86930000  1
  H  H129  1  0.27868000  0.00000000  0.86930000  1
  H  H130  1  0.10451000  0.96786000  0.67668000  1
  H  H131  1  0.08731000  0.03214000  0.74095000  1
  H  H132  1  0.13070000  0.50000000  0.77868000  1
  H  H133  1  0.36930000  0.00000000  0.77868000  1
  H  H134  1  0.39549000  0.46786000  0.67668000  1
  H  H135  1  0.41269000  0.53214000  0.74095000  1
  H  H136  1  0.27868000  0.00000000  0.13070000  1
  H  H137  1  0.22132000  0.50000000  0.13070000  1
  H  H138  1  0.22132000  0.00000000  0.36930000  1
  H  H139  1  0.33445000  0.48842000  0.39251000  1
  H  H140  1  0.24793000  0.51158000  0.41567000  1
  H  H141  1  0.13070000  0.50000000  0.22132000  1
  H  H142  1  0.08731000  0.96786000  0.25905000  1
  H  H143  1  0.10451000  0.03214000  0.32332000  1
  H  H144  1  0.36930000  0.50000000  0.27868000  1
  H  H145  1  0.36930000  0.00000000  0.22132000  1
  H  H146  1  0.77868000  0.50000000  0.13070000  1
  H  H147  1  0.72132000  0.00000000  0.13070000  1
  H  H148  1  0.72132000  0.50000000  0.36930000  1
  H  H149  1  0.77868000  0.00000000  0.36930000  1
  H  H150  1  0.60451000  0.96786000  0.17668000  1
  H  H151  1  0.58731000  0.03214000  0.24095000  1
  H  H152  1  0.63070000  0.50000000  0.27868000  1
  H  H153  1  0.86930000  0.00000000  0.27868000  1
  H  H154  1  0.89549000  0.46786000  0.17668000  1
  H  H155  1  0.91269000  0.53214000  0.24095000  1
  H  H156  1  0.84640000  0.44514000  0.34640000  1
  H  H157  1  0.13070000  0.22132000  0.50000000  1
  H  H158  1  0.41269000  0.25905000  0.46786000  1
  H  H159  1  0.39549000  0.32332000  0.53214000  1
  H  H160  1  0.22132000  0.13070000  0.50000000  1
  H  H161  1  0.27868000  0.36930000  0.50000000  1
  H  H162  1  0.13070000  0.77868000  0.50000000  1
  H  H163  1  0.39549000  0.67668000  0.46786000  1
  H  H164  1  0.41269000  0.74095000  0.53214000  1
  H  H165  1  0.27868000  0.63070000  0.50000000  1
  H  H166  1  0.22132000  0.86930000  0.50000000  1
  H  H167  1  0.50000000  0.63070000  0.27868000  1
  H  H168  1  0.45374000  0.90409000  0.20881000  1
  H  H169  1  0.54626000  0.90409000  0.20881000  1
  H  H170  1  0.50000000  0.72132000  0.36930000  1
  H  H171  1  0.50000000  0.77868000  0.13070000  1
  H  H172  1  0.54626000  0.09591000  0.20881000  1
  H  H173  1  0.45374000  0.09591000  0.20881000  1
  H  H174  1  0.50000000  0.36930000  0.27868000  1
  H  H175  1  0.50000000  0.27868000  0.36930000  1
  H  H176  1  0.50000000  0.22132000  0.13070000  1
  C  C177  1  0.26750000  0.00000000  0.18440000  1
  C  C178  1  0.26750000  0.50000000  0.68440000  1
  C  C179  1  0.76750000  0.00000000  0.68440000  1
  C  C180  1  0.76750000  0.50000000  0.18440000  1
  C  C181  1  0.73250000  0.00000000  0.18440000  1
  C  C182  1  0.73250000  0.50000000  0.68440000  1
  C  C183  1  0.23250000  0.00000000  0.68440000  1
  C  C184  1  0.23250000  0.50000000  0.18440000  1
  C  C185  1  0.73250000  0.00000000  0.81560000  1
  C  C186  1  0.73250000  0.50000000  0.31560000  1
  C  C187  1  0.23250000  0.00000000  0.31560000  1
  C  C188  1  0.23250000  0.50000000  0.81560000  1
  C  C189  1  0.26750000  0.00000000  0.81560000  1
  C  C190  1  0.26750000  0.50000000  0.31560000  1
  C  C191  1  0.76750000  0.00000000  0.31560000  1
  C  C192  1  0.76750000  0.50000000  0.81560000  1
  C  C193  1  0.18440000  0.26750000  0.00000000  1
  C  C194  1  0.18440000  0.76750000  0.50000000  1
  C  C195  1  0.68440000  0.26750000  0.50000000  1
  C  C196  1  0.68440000  0.76750000  0.00000000  1
  C  C197  1  0.18440000  0.73250000  0.00000000  1
  C  C198  1  0.18440000  0.23250000  0.50000000  1
  C  C199  1  0.68440000  0.73250000  0.50000000  1
  C  C200  1  0.68440000  0.23250000  0.00000000  1
  C  C201  1  0.81560000  0.73250000  0.00000000  1
  C  C202  1  0.81560000  0.23250000  0.50000000  1
  C  C203  1  0.31560000  0.73250000  0.50000000  1
  C  C204  1  0.31560000  0.23250000  0.00000000  1
  C  C205  1  0.81560000  0.26750000  0.00000000  1
  C  C206  1  0.81560000  0.76750000  0.50000000  1
  C  C207  1  0.31560000  0.26750000  0.50000000  1
  C  C208  1  0.31560000  0.76750000  0.00000000  1
  C  C209  1  0.00000000  0.18440000  0.26750000  1
  C  C210  1  0.00000000  0.68440000  0.76750000  1
  C  C211  1  0.50000000  0.18440000  0.76750000  1
  C  C212  1  0.50000000  0.68440000  0.26750000  1
  C  C213  1  0.00000000  0.18440000  0.73250000  1
  C  C214  1  0.00000000  0.68440000  0.23250000  1
  C  C215  1  0.50000000  0.18440000  0.23250000  1
  C  C216  1  0.50000000  0.68440000  0.73250000  1
  C  C217  1  0.00000000  0.81560000  0.73250000  1
  C  C218  1  0.00000000  0.31560000  0.23250000  1
  C  C219  1  0.50000000  0.81560000  0.23250000  1
  C  C220  1  0.50000000  0.31560000  0.73250000  1
  C  C221  1  0.00000000  0.81560000  0.26750000  1
  C  C222  1  0.00000000  0.31560000  0.76750000  1
  C  C223  1  0.50000000  0.81560000  0.76750000  1
  C  C224  1  0.50000000  0.31560000  0.26750000  1
  C  C225  1  0.00000000  0.26750000  0.81560000  1
  C  C226  1  0.00000000  0.76750000  0.31560000  1
  C  C227  1  0.50000000  0.26750000  0.31560000  1
  C  C228  1  0.50000000  0.76750000  0.81560000  1
  C  C229  1  0.00000000  0.73250000  0.81560000  1
  C  C230  1  0.00000000  0.23250000  0.31560000  1
  C  C231  1  0.50000000  0.73250000  0.31560000  1
  C  C232  1  0.50000000  0.23250000  0.81560000  1
  C  C233  1  0.00000000  0.73250000  0.18440000  1
  C  C234  1  0.00000000  0.23250000  0.68440000  1
  C  C235  1  0.50000000  0.73250000  0.68440000  1
  C  C236  1  0.50000000  0.23250000  0.18440000  1
  C  C237  1  0.00000000  0.26750000  0.18440000  1
  C  C238  1  0.00000000  0.76750000  0.68440000  1
  C  C239  1  0.50000000  0.26750000  0.68440000  1
  C  C240  1  0.50000000  0.76750000  0.18440000  1
  C  C241  1  0.26750000  0.18440000  0.00000000  1
  C  C242  1  0.26750000  0.68440000  0.50000000  1
  C  C243  1  0.76750000  0.18440000  0.50000000  1
  C  C244  1  0.76750000  0.68440000  0.00000000  1
  C  C245  1  0.73250000  0.18440000  0.00000000  1
  C  C246  1  0.73250000  0.68440000  0.50000000  1
  C  C247  1  0.23250000  0.18440000  0.50000000  1
  C  C248  1  0.23250000  0.68440000  0.00000000  1
  C  C249  1  0.73250000  0.81560000  0.00000000  1
  C  C250  1  0.73250000  0.31560000  0.50000000  1
  C  C251  1  0.23250000  0.81560000  0.50000000  1
  C  C252  1  0.23250000  0.31560000  0.00000000  1
  C  C253  1  0.26750000  0.81560000  0.00000000  1
  C  C254  1  0.26750000  0.31560000  0.50000000  1
  C  C255  1  0.76750000  0.81560000  0.50000000  1
  C  C256  1  0.76750000  0.31560000  0.00000000  1
  C  C257  1  0.18440000  0.00000000  0.73250000  1
  C  C258  1  0.18440000  0.50000000  0.23250000  1
  C  C259  1  0.68440000  0.00000000  0.23250000  1
  C  C260  1  0.68440000  0.50000000  0.73250000  1
  C  C261  1  0.18440000  0.00000000  0.26750000  1
  C  C262  1  0.18440000  0.50000000  0.76750000  1
  C  C263  1  0.68440000  0.00000000  0.76750000  1
  C  C264  1  0.68440000  0.50000000  0.26750000  1
  C  C265  1  0.81560000  0.00000000  0.26750000  1
  C  C266  1  0.81560000  0.50000000  0.76750000  1
  C  C267  1  0.31560000  0.00000000  0.76750000  1
  C  C268  1  0.31560000  0.50000000  0.26750000  1
  C  C269  1  0.81560000  0.00000000  0.73250000  1
  C  C270  1  0.81560000  0.50000000  0.23250000  1
  C  C271  1  0.31560000  0.00000000  0.23250000  1
  C  C272  1  0.31560000  0.50000000  0.73250000  1
  C  C273  1  0.15360000  0.00000000  0.15360000  1
  C  C274  1  0.20500000  0.00000000  0.20500000  1
  C  C275  1  0.15360000  0.50000000  0.65360000  1
  C  C276  1  0.20500000  0.50000000  0.70500000  1
  C  C277  1  0.65360000  0.00000000  0.65360000  1
  C  C278  1  0.70500000  0.00000000  0.70500000  1
  C  C279  1  0.65360000  0.50000000  0.15360000  1
  C  C280  1  0.70500000  0.50000000  0.20500000  1
  C  C281  1  0.84640000  0.00000000  0.15360000  1
  C  C282  1  0.79500000  0.00000000  0.20500000  1
  C  C283  1  0.84640000  0.50000000  0.65360000  1
  C  C284  1  0.79500000  0.50000000  0.70500000  1
  C  C285  1  0.34640000  0.00000000  0.65360000  1
  C  C286  1  0.29500000  0.00000000  0.70500000  1
  C  C287  1  0.34640000  0.50000000  0.15360000  1
  C  C288  1  0.29500000  0.50000000  0.20500000  1
  C  C289  1  0.84640000  0.00000000  0.84640000  1
  C  C290  1  0.79500000  0.00000000  0.79500000  1
  C  C291  1  0.84640000  0.50000000  0.34640000  1
  C  C292  1  0.79500000  0.50000000  0.29500000  1
  C  C293  1  0.34640000  0.00000000  0.34640000  1
  C  C294  1  0.29500000  0.00000000  0.29500000  1
  C  C295  1  0.34640000  0.50000000  0.84640000  1
  C  C296  1  0.29500000  0.50000000  0.79500000  1
  C  C297  1  0.15360000  0.00000000  0.84640000  1
  C  C298  1  0.20500000  0.00000000  0.79500000  1
  C  C299  1  0.15360000  0.50000000  0.34640000  1
  C  C300  1  0.20500000  0.50000000  0.29500000  1
  C  C301  1  0.65360000  0.00000000  0.34640000  1
  C  C302  1  0.70500000  0.00000000  0.29500000  1
  C  C303  1  0.65360000  0.50000000  0.84640000  1
  C  C304  1  0.70500000  0.50000000  0.79500000  1
  C  C305  1  0.15360000  0.15360000  0.00000000  1
  C  C306  1  0.20500000  0.20500000  0.00000000  1
  C  C307  1  0.15360000  0.65360000  0.50000000  1
  C  C308  1  0.20500000  0.70500000  0.50000000  1
  C  C309  1  0.65360000  0.15360000  0.50000000  1
  C  C310  1  0.70500000  0.20500000  0.50000000  1
  C  C311  1  0.65360000  0.65360000  0.00000000  1
  C  C312  1  0.70500000  0.70500000  0.00000000  1
  C  C313  1  0.15360000  0.84640000  0.00000000  1
  C  C314  1  0.20500000  0.79500000  0.00000000  1
  C  C315  1  0.15360000  0.34640000  0.50000000  1
  C  C316  1  0.20500000  0.29500000  0.50000000  1
  C  C317  1  0.65360000  0.84640000  0.50000000  1
  C  C318  1  0.70500000  0.79500000  0.50000000  1
  C  C319  1  0.65360000  0.34640000  0.00000000  1
  C  C320  1  0.70500000  0.29500000  0.00000000  1
  C  C321  1  0.84640000  0.84640000  0.00000000  1
  C  C322  1  0.79500000  0.79500000  0.00000000  1
  C  C323  1  0.84640000  0.34640000  0.50000000  1
  C  C324  1  0.79500000  0.29500000  0.50000000  1
  C  C325  1  0.34640000  0.84640000  0.50000000  1
  C  C326  1  0.29500000  0.79500000  0.50000000  1
  C  C327  1  0.34640000  0.34640000  0.00000000  1
  C  C328  1  0.29500000  0.29500000  0.00000000  1
  C  C329  1  0.84640000  0.15360000  0.00000000  1
  C  C330  1  0.79500000  0.20500000  0.00000000  1
  C  C331  1  0.84640000  0.65360000  0.50000000  1
  C  C332  1  0.79500000  0.70500000  0.50000000  1
  C  C333  1  0.34640000  0.15360000  0.50000000  1
  C  C334  1  0.29500000  0.20500000  0.50000000  1
  C  C335  1  0.34640000  0.65360000  0.00000000  1
  C  C336  1  0.29500000  0.70500000  0.00000000  1
  C  C337  1  0.00000000  0.15360000  0.15360000  1
  C  C338  1  0.00000000  0.20500000  0.20500000  1
  C  C339  1  0.00000000  0.65360000  0.65360000  1
  C  C340  1  0.00000000  0.70500000  0.70500000  1
  C  C341  1  0.50000000  0.15360000  0.65360000  1
  C  C342  1  0.50000000  0.20500000  0.70500000  1
  C  C343  1  0.50000000  0.65360000  0.15360000  1
  C  C344  1  0.50000000  0.70500000  0.20500000  1
  C  C345  1  0.00000000  0.15360000  0.84640000  1
  C  C346  1  0.00000000  0.20500000  0.79500000  1
  C  C347  1  0.00000000  0.65360000  0.34640000  1
  C  C348  1  0.00000000  0.70500000  0.29500000  1
  C  C349  1  0.50000000  0.15360000  0.34640000  1
  C  C350  1  0.50000000  0.20500000  0.29500000  1
  C  C351  1  0.50000000  0.65360000  0.84640000  1
  C  C352  1  0.50000000  0.70500000  0.79500000  1
  C  C353  1  0.00000000  0.84640000  0.84640000  1
  C  C354  1  0.00000000  0.79500000  0.79500000  1
  C  C355  1  0.00000000  0.34640000  0.34640000  1
  C  C356  1  0.00000000  0.29500000  0.29500000  1
  C  C357  1  0.50000000  0.84640000  0.34640000  1
  C  C358  1  0.50000000  0.79500000  0.29500000  1
  C  C359  1  0.50000000  0.34640000  0.84640000  1
  C  C360  1  0.50000000  0.29500000  0.79500000  1
  C  C361  1  0.00000000  0.84640000  0.15360000  1
  C  C362  1  0.00000000  0.79500000  0.20500000  1
  C  C363  1  0.00000000  0.34640000  0.65360000  1
  C  C364  1  0.00000000  0.29500000  0.70500000  1
  C  C365  1  0.50000000  0.84640000  0.65360000  1
  C  C366  1  0.50000000  0.79500000  0.70500000  1
  C  C367  1  0.50000000  0.34640000  0.15360000  1
  C  C368  1  0.50000000  0.29500000  0.20500000  1
  N  N369  1  0.28428000  0.50000000  0.37829000  1
  N  N370  1  0.62171000  0.78428000  0.00000000  1
  N  N371  1  0.62171000  0.21572000  0.00000000  1
  N  N372  1  0.37829000  0.71572000  0.50000000  1
  N  N373  1  0.37829000  0.28428000  0.50000000  1
  N  N374  1  0.00000000  0.62171000  0.21572000  1
  N  N375  1  0.50000000  0.12171000  0.21572000  1
  N  N376  1  0.50000000  0.62171000  0.71572000  1
  N  N377  1  0.00000000  0.37829000  0.21572000  1
  N  N378  1  0.50000000  0.87829000  0.21572000  1
  N  N379  1  0.50000000  0.37829000  0.71572000  1
  N  N380  1  0.00000000  0.21572000  0.62171000  1
  N  N381  1  0.00000000  0.78428000  0.62171000  1
  N  N382  1  0.71572000  0.62171000  0.50000000  1
  N  N383  1  0.21572000  0.62171000  0.00000000  1
  N  N384  1  0.71572000  0.37829000  0.50000000  1
  N  N385  1  0.21572000  0.37829000  0.00000000  1
  N  N386  1  0.12171000  0.00000000  0.71572000  1
  N  N387  1  0.62171000  0.00000000  0.21572000  1
  N  N388  1  0.62171000  0.50000000  0.71572000  1
  N  N389  1  0.12171000  0.00000000  0.28428000  1
  N  N390  1  0.62171000  0.00000000  0.78428000  1
  N  N391  1  0.87829000  0.50000000  0.21572000  1
  N  N392  1  0.37829000  0.50000000  0.71572000  1
  O  O393  1  0.18050000  0.00000000  0.08480000  1
  O  O394  1  0.18050000  0.50000000  0.58480000  1
  O  O395  1  0.68050000  0.00000000  0.58480000  1
  O  O396  1  0.68050000  0.50000000  0.08480000  1
  O  O397  1  0.81950000  0.00000000  0.08480000  1
  O  O398  1  0.81950000  0.50000000  0.58480000  1
  O  O399  1  0.31950000  0.00000000  0.58480000  1
  O  O400  1  0.31950000  0.50000000  0.08480000  1
  O  O401  1  0.81950000  0.00000000  0.91520000  1
  O  O402  1  0.81950000  0.50000000  0.41520000  1
  O  O403  1  0.31950000  0.00000000  0.41520000  1
  O  O404  1  0.31950000  0.50000000  0.91520000  1
  O  O405  1  0.18050000  0.00000000  0.91520000  1
  O  O406  1  0.18050000  0.50000000  0.41520000  1
  O  O407  1  0.68050000  0.00000000  0.41520000  1
  O  O408  1  0.68050000  0.50000000  0.91520000  1
  O  O409  1  0.08480000  0.18050000  0.00000000  1
  O  O410  1  0.08480000  0.68050000  0.50000000  1
  O  O411  1  0.58480000  0.18050000  0.50000000  1
  O  O412  1  0.58480000  0.68050000  0.00000000  1
  O  O413  1  0.08480000  0.81950000  0.00000000  1
  O  O414  1  0.08480000  0.31950000  0.50000000  1
  O  O415  1  0.58480000  0.81950000  0.50000000  1
  O  O416  1  0.58480000  0.31950000  0.00000000  1
  O  O417  1  0.91520000  0.81950000  0.00000000  1
  O  O418  1  0.91520000  0.31950000  0.50000000  1
  O  O419  1  0.41520000  0.81950000  0.50000000  1
  O  O420  1  0.41520000  0.31950000  0.00000000  1
  O  O421  1  0.91520000  0.18050000  0.00000000  1
  O  O422  1  0.91520000  0.68050000  0.50000000  1
  O  O423  1  0.41520000  0.18050000  0.50000000  1
  O  O424  1  0.41520000  0.68050000  0.00000000  1
  O  O425  1  0.00000000  0.08480000  0.18050000  1
  O  O426  1  0.00000000  0.58480000  0.68050000  1
  O  O427  1  0.50000000  0.08480000  0.68050000  1
  O  O428  1  0.50000000  0.58480000  0.18050000  1
  O  O429  1  0.00000000  0.08480000  0.81950000  1
  O  O430  1  0.00000000  0.58480000  0.31950000  1
  O  O431  1  0.50000000  0.08480000  0.31950000  1
  O  O432  1  0.50000000  0.58480000  0.81950000  1
  O  O433  1  0.00000000  0.91520000  0.81950000  1
  O  O434  1  0.00000000  0.41520000  0.31950000  1
  O  O435  1  0.50000000  0.91520000  0.31950000  1
  O  O436  1  0.50000000  0.41520000  0.81950000  1
  O  O437  1  0.00000000  0.91520000  0.18050000  1
  O  O438  1  0.00000000  0.41520000  0.68050000  1
  O  O439  1  0.50000000  0.91520000  0.68050000  1
  O  O440  1  0.50000000  0.41520000  0.18050000  1
  O  O441  1  0.00000000  0.18050000  0.91520000  1
  O  O442  1  0.00000000  0.68050000  0.41520000  1
  O  O443  1  0.50000000  0.18050000  0.41520000  1
  O  O444  1  0.50000000  0.68050000  0.91520000  1
  O  O445  1  0.00000000  0.81950000  0.91520000  1
  O  O446  1  0.00000000  0.31950000  0.41520000  1
  O  O447  1  0.50000000  0.81950000  0.41520000  1
  O  O448  1  0.50000000  0.31950000  0.91520000  1
  O  O449  1  0.00000000  0.81950000  0.08480000  1
  O  O450  1  0.00000000  0.31950000  0.58480000  1
  O  O451  1  0.50000000  0.81950000  0.58480000  1
  O  O452  1  0.50000000  0.31950000  0.08480000  1
  O  O453  1  0.00000000  0.18050000  0.08480000  1
  O  O454  1  0.00000000  0.68050000  0.58480000  1
  O  O455  1  0.50000000  0.18050000  0.58480000  1
  O  O456  1  0.50000000  0.68050000  0.08480000  1
  O  O457  1  0.18050000  0.08480000  0.00000000  1
  O  O458  1  0.18050000  0.58480000  0.50000000  1
  O  O459  1  0.68050000  0.08480000  0.50000000  1
  O  O460  1  0.68050000  0.58480000  0.00000000  1
  O  O461  1  0.81950000  0.08480000  0.00000000  1
  O  O462  1  0.81950000  0.58480000  0.50000000  1
  O  O463  1  0.31950000  0.08480000  0.50000000  1
  O  O464  1  0.31950000  0.58480000  0.00000000  1
  O  O465  1  0.81950000  0.91520000  0.00000000  1
  O  O466  1  0.81950000  0.41520000  0.50000000  1
  O  O467  1  0.31950000  0.91520000  0.50000000  1
  O  O468  1  0.31950000  0.41520000  0.00000000  1
  O  O469  1  0.18050000  0.91520000  0.00000000  1
  O  O470  1  0.18050000  0.41520000  0.50000000  1
  O  O471  1  0.68050000  0.91520000  0.50000000  1
  O  O472  1  0.68050000  0.41520000  0.00000000  1
  O  O473  1  0.08480000  0.00000000  0.81950000  1
  O  O474  1  0.08480000  0.50000000  0.31950000  1
  O  O475  1  0.58480000  0.00000000  0.31950000  1
  O  O476  1  0.58480000  0.50000000  0.81950000  1
  O  O477  1  0.08480000  0.00000000  0.18050000  1
  O  O478  1  0.08480000  0.50000000  0.68050000  1
  O  O479  1  0.58480000  0.00000000  0.68050000  1
  O  O480  1  0.58480000  0.50000000  0.18050000  1
  O  O481  1  0.91520000  0.00000000  0.18050000  1
  O  O482  1  0.91520000  0.50000000  0.68050000  1
  O  O483  1  0.41520000  0.00000000  0.68050000  1
  O  O484  1  0.41520000  0.50000000  0.18050000  1
  O  O485  1  0.91520000  0.00000000  0.81950000  1
  O  O486  1  0.91520000  0.50000000  0.31950000  1
  O  O487  1  0.41520000  0.00000000  0.31950000  1
  O  O488  1  0.41520000  0.50000000  0.81950000  1
  O  O489  1  0.06280000  0.06280000  0.06280000  1
  O  O490  1  0.06280000  0.56280000  0.56280000  1
  O  O491  1  0.56280000  0.06280000  0.56280000  1
  O  O492  1  0.56280000  0.56280000  0.06280000  1
  O  O493  1  0.93720000  0.93720000  0.06280000  1
  O  O494  1  0.93720000  0.43720000  0.56280000  1
  O  O495  1  0.43720000  0.93720000  0.56280000  1
  O  O496  1  0.43720000  0.43720000  0.06280000  1
  O  O497  1  0.93720000  0.06280000  0.93720000  1
  O  O498  1  0.93720000  0.56280000  0.43720000  1
  O  O499  1  0.43720000  0.06280000  0.43720000  1
  O  O500  1  0.43720000  0.56280000  0.93720000  1
  O  O501  1  0.06280000  0.93720000  0.93720000  1
  O  O502  1  0.06280000  0.43720000  0.43720000  1
  O  O503  1  0.56280000  0.93720000  0.43720000  1
  O  O504  1  0.56280000  0.43720000  0.93720000  1
  O  O505  1  0.06280000  0.06280000  0.93720000  1
  O  O506  1  0.06280000  0.56280000  0.43720000  1
  O  O507  1  0.56280000  0.06280000  0.43720000  1
  O  O508  1  0.56280000  0.56280000  0.93720000  1
  O  O509  1  0.93720000  0.93720000  0.93720000  1
  O  O510  1  0.93720000  0.43720000  0.43720000  1
  O  O511  1  0.43720000  0.93720000  0.43720000  1
  O  O512  1  0.43720000  0.43720000  0.93720000  1
  O  O513  1  0.06280000  0.93720000  0.06280000  1
  O  O514  1  0.06280000  0.43720000  0.56280000  1
  O  O515  1  0.56280000  0.93720000  0.56280000  1
  O  O516  1  0.56280000  0.43720000  0.06280000  1
  O  O517  1  0.93720000  0.06280000  0.06280000  1
  O  O518  1  0.93720000  0.56280000  0.56280000  1
  O  O519  1  0.43720000  0.06280000  0.56280000  1
  O  O520  1  0.43720000  0.56280000  0.06280000  1
