# generated using pymatgen
data_Zr3H22(C11O4)4
_symmetry_space_group_name_H-M   'P 1'
_cell_length_a   16.48290000
_cell_length_b   39.38750000
_cell_length_c   39.38750000
_cell_angle_alpha   120.00000000
_cell_angle_beta   90.00000000
_cell_angle_gamma   90.00000000
_symmetry_Int_Tables_number   1
_chemical_formula_structural   Zr3H22(C11O4)4
_chemical_formula_sum   'Zr18 H132 C264 O96'
_cell_volume   22145.27551779
_cell_formula_units_Z   6
loop_
 _symmetry_equiv_pos_site_id
 _symmetry_equiv_pos_as_xyz
  1  'x, y, z'
loop_
 _atom_site_type_symbol
 _atom_site_label
 _atom_site_symmetry_multiplicity
 _atom_site_fract_x
 _atom_site_fract_y
 _atom_site_fract_z
 _atom_site_occupancy
  Zr  Zr0  1  0.10665000  0.54474000  0.00000000  1
  Zr  Zr1  1  0.00000000  0.46402000  0.92804000  1
  Zr  Zr2  1  0.10665000  1.00000000  0.45526000  1
  Zr  Zr3  1  0.00000000  0.92804000  0.46402000  1
  Zr  Zr4  1  0.10665000  0.45526000  0.45526000  1
  Zr  Zr5  1  1.00000000  0.46402000  0.53598000  1
  Zr  Zr6  1  0.10665000  0.45526000  0.00000000  1
  Zr  Zr7  1  0.00000000  0.53598000  0.07196000  1
  Zr  Zr8  1  0.10665000  0.00000000  0.54474000  1
  Zr  Zr9  1  0.00000000  0.07196000  0.53598000  1
  Zr  Zr10  1  0.10665000  0.54474000  0.54474000  1
  Zr  Zr11  1  0.00000000  0.53598000  0.46402000  1
  Zr  Zr12  1  0.89335000  0.45526000  0.00000000  1
  Zr  Zr13  1  0.89335000  0.00000000  0.54474000  1
  Zr  Zr14  1  0.89335000  0.54474000  0.54474000  1
  Zr  Zr15  1  0.89335000  0.54474000  0.00000000  1
  Zr  Zr16  1  0.89335000  1.00000000  0.45526000  1
  Zr  Zr17  1  0.89335000  0.45526000  0.45526000  1
  H  H18  1  0.24460000  0.56160000  0.91280000  1
  H  H19  1  0.33000000  0.55920000  0.86360000  1
  H  H20  1  0.21210000  0.46350000  0.78210000  1
  H  H21  1  0.13410000  0.46330000  0.83040000  1
  H  H22  1  0.43370000  0.50920000  0.83770000  1
  H  H23  1  0.23040000  0.51220000  0.75610000  1
  H  H24  1  0.24460000  0.91280000  0.35120000  1
  H  H25  1  0.33000000  0.86360000  0.30440000  1
  H  H26  1  0.21210000  0.78210000  0.31860000  1
  H  H27  1  0.13410000  0.83040000  0.36710000  1
  H  H28  1  0.43370000  0.83770000  0.32850000  1
  H  H29  1  0.23040000  0.75610000  0.24390000  1
  H  H30  1  0.24460000  0.35120000  0.43840000  1
  H  H31  1  0.33000000  0.30440000  0.44080000  1
  H  H32  1  0.21210000  0.31860000  0.53650000  1
  H  H33  1  0.13410000  0.36710000  0.53670000  1
  H  H34  1  0.43370000  0.32850000  0.49080000  1
  H  H35  1  0.23040000  0.24390000  0.48780000  1
  H  H36  1  0.24460000  0.43840000  0.08720000  1
  H  H37  1  0.33000000  0.44080000  0.13640000  1
  H  H38  1  0.21210000  0.53650000  0.21790000  1
  H  H39  1  0.13410000  0.53670000  0.16960000  1
  H  H40  1  0.43370000  0.49080000  0.16230000  1
  H  H41  1  0.23040000  0.48780000  0.24390000  1
  H  H42  1  0.24460000  0.08720000  0.64880000  1
  H  H43  1  0.33000000  0.13640000  0.69560000  1
  H  H44  1  0.21210000  0.21790000  0.68140000  1
  H  H45  1  0.13410000  0.16960000  0.63290000  1
  H  H46  1  0.43370000  0.16230000  0.67150000  1
  H  H47  1  0.23040000  0.24390000  0.75610000  1
  H  H48  1  0.24460000  0.64880000  0.56160000  1
  H  H49  1  0.33000000  0.69560000  0.55920000  1
  H  H50  1  0.21210000  0.68140000  0.46350000  1
  H  H51  1  0.13410000  0.63290000  0.46330000  1
  H  H52  1  0.43370000  0.67150000  0.50920000  1
  H  H53  1  0.23040000  0.75610000  0.51220000  1
  H  H54  1  0.75540000  0.35120000  0.91280000  1
  H  H55  1  0.67000000  0.30440000  0.86360000  1
  H  H56  1  0.78790000  0.31860000  0.78210000  1
  H  H57  1  0.86590000  0.36710000  0.83040000  1
  H  H58  1  0.56630000  0.32850000  0.83770000  1
  H  H59  1  0.76960000  0.24390000  0.75610000  1
  H  H60  1  0.75540000  0.91280000  0.56160000  1
  H  H61  1  0.67000000  0.86360000  0.55920000  1
  H  H62  1  0.78790000  0.78210000  0.46350000  1
  H  H63  1  0.86590000  0.83040000  0.46330000  1
  H  H64  1  0.56630000  0.83770000  0.50920000  1
  H  H65  1  0.76960000  0.75610000  0.51220000  1
  H  H66  1  0.75540000  0.56160000  0.64880000  1
  H  H67  1  0.67000000  0.55920000  0.69560000  1
  H  H68  1  0.78790000  0.46350000  0.68140000  1
  H  H69  1  0.86590000  0.46330000  0.63290000  1
  H  H70  1  0.56630000  0.50920000  0.67150000  1
  H  H71  1  0.76960000  0.51220000  0.75610000  1
  H  H72  1  0.75540000  0.64880000  0.08720000  1
  H  H73  1  0.67000000  0.69560000  0.13640000  1
  H  H74  1  0.78790000  0.68140000  0.21790000  1
  H  H75  1  0.86590000  0.63290000  0.16960000  1
  H  H76  1  0.56630000  0.67150000  0.16230000  1
  H  H77  1  0.76960000  0.75610000  0.24390000  1
  H  H78  1  0.75540000  0.08720000  0.43840000  1
  H  H79  1  0.67000000  0.13640000  0.44080000  1
  H  H80  1  0.78790000  0.21790000  0.53650000  1
  H  H81  1  0.86590000  0.16960000  0.53670000  1
  H  H82  1  0.56630000  0.16230000  0.49080000  1
  H  H83  1  0.76960000  0.24390000  0.48780000  1
  H  H84  1  0.75540000  0.43840000  0.35120000  1
  H  H85  1  0.67000000  0.44080000  0.30440000  1
  H  H86  1  0.78790000  0.53650000  0.31860000  1
  H  H87  1  0.86590000  0.53670000  0.36710000  1
  H  H88  1  0.56630000  0.49080000  0.32850000  1
  H  H89  1  0.76960000  0.48780000  0.24390000  1
  H  H90  1  0.75540000  0.43840000  0.08720000  1
  H  H91  1  0.67000000  0.44080000  0.13640000  1
  H  H92  1  0.78790000  0.53650000  0.21790000  1
  H  H93  1  0.86590000  0.53670000  0.16960000  1
  H  H94  1  0.56630000  0.49080000  0.16230000  1
  H  H95  1  0.75540000  0.08720000  0.64880000  1
  H  H96  1  0.67000000  0.13640000  0.69560000  1
  H  H97  1  0.78790000  0.21790000  0.68140000  1
  H  H98  1  0.86590000  0.16960000  0.63290000  1
  H  H99  1  0.56630000  0.16230000  0.67150000  1
  H  H100  1  0.75540000  0.64880000  0.56160000  1
  H  H101  1  0.67000000  0.69560000  0.55920000  1
  H  H102  1  0.78790000  0.68140000  0.46350000  1
  H  H103  1  0.86590000  0.63290000  0.46330000  1
  H  H104  1  0.56630000  0.67150000  0.50920000  1
  H  H105  1  0.75540000  0.56160000  0.91280000  1
  H  H106  1  0.67000000  0.55920000  0.86360000  1
  H  H107  1  0.78790000  0.46350000  0.78210000  1
  H  H108  1  0.86590000  0.46330000  0.83040000  1
  H  H109  1  0.56630000  0.50920000  0.83770000  1
  H  H110  1  0.75540000  0.91280000  0.35120000  1
  H  H111  1  0.67000000  0.86360000  0.30440000  1
  H  H112  1  0.78790000  0.78210000  0.31860000  1
  H  H113  1  0.86590000  0.83040000  0.36710000  1
  H  H114  1  0.56630000  0.83770000  0.32850000  1
  H  H115  1  0.75540000  0.35120000  0.43840000  1
  H  H116  1  0.67000000  0.30440000  0.44080000  1
  H  H117  1  0.78790000  0.31860000  0.53650000  1
  H  H118  1  0.86590000  0.36710000  0.53670000  1
  H  H119  1  0.56630000  0.32850000  0.49080000  1
  H  H120  1  0.24460000  0.64880000  0.08720000  1
  H  H121  1  0.33000000  0.69560000  0.13640000  1
  H  H122  1  0.21210000  0.68140000  0.21790000  1
  H  H123  1  0.13410000  0.63290000  0.16960000  1
  H  H124  1  0.43370000  0.67150000  0.16230000  1
  H  H125  1  0.24460000  0.08720000  0.43840000  1
  H  H126  1  0.33000000  0.13640000  0.44080000  1
  H  H127  1  0.21210000  0.21790000  0.53650000  1
  H  H128  1  0.13410000  0.16960000  0.53670000  1
  H  H129  1  0.43370000  0.16230000  0.49080000  1
  H  H130  1  0.24460000  0.43840000  0.35120000  1
  H  H131  1  0.33000000  0.44080000  0.30440000  1
  H  H132  1  0.21210000  0.53650000  0.31860000  1
  H  H133  1  0.13410000  0.53670000  0.36710000  1
  H  H134  1  0.43370000  0.49080000  0.32850000  1
  H  H135  1  0.24460000  0.35120000  0.91280000  1
  H  H136  1  0.33000000  0.30440000  0.86360000  1
  H  H137  1  0.21210000  0.31860000  0.78210000  1
  H  H138  1  0.13410000  0.36710000  0.83040000  1
  H  H139  1  0.43370000  0.32850000  0.83770000  1
  H  H140  1  0.24460000  0.91280000  0.56160000  1
  H  H141  1  0.33000000  0.86360000  0.55920000  1
  H  H142  1  0.21210000  0.78210000  0.46350000  1
  H  H143  1  0.13410000  0.83040000  0.46330000  1
  H  H144  1  0.43370000  0.83770000  0.50920000  1
  H  H145  1  0.24460000  0.56160000  0.64880000  1
  H  H146  1  0.33000000  0.55920000  0.69560000  1
  H  H147  1  0.21210000  0.46350000  0.68140000  1
  H  H148  1  0.13410000  0.46330000  0.63290000  1
  H  H149  1  0.43370000  0.50920000  0.67150000  1
  C  C150  1  0.13370000  0.50870000  0.90720000  1
  C  C151  1  0.18210000  0.50970000  0.87610000  1
  C  C152  1  0.23980000  0.54080000  0.88640000  1
  C  C153  1  0.28880000  0.54000000  0.85690000  1
  C  C154  1  0.27790000  0.51180000  0.81830000  1
  C  C155  1  0.22000000  0.48310000  0.80870000  1
  C  C156  1  0.17410000  0.48320000  0.83780000  1
  C  C157  1  0.32690000  0.51110000  0.78630000  1
  C  C158  1  0.41450000  0.51010000  0.78660000  1
  C  C159  1  0.46130000  0.50960000  0.81680000  1
  C  C160  1  0.45680000  0.51300000  0.75650000  1
  C  C161  1  0.28810000  0.51150000  0.75575000  1
  C  C162  1  0.13370000  0.90720000  0.39850000  1
  C  C163  1  0.18210000  0.87610000  0.36640000  1
  C  C164  1  0.23980000  0.88640000  0.34560000  1
  C  C165  1  0.28880000  0.85690000  0.31690000  1
  C  C166  1  0.27790000  0.81830000  0.30650000  1
  C  C167  1  0.22000000  0.80870000  0.32560000  1
  C  C168  1  0.17410000  0.83780000  0.35460000  1
  C  C169  1  0.32690000  0.78630000  0.27520000  1
  C  C170  1  0.41450000  0.78660000  0.27650000  1
  C  C171  1  0.46130000  0.81680000  0.30720000  1
  C  C172  1  0.45680000  0.75650000  0.24350000  1
  C  C173  1  0.28810000  0.75575000  0.24425000  1
  C  C174  1  0.13370000  0.39850000  0.49130000  1
  C  C175  1  0.18210000  0.36640000  0.49030000  1
  C  C176  1  0.23980000  0.34560000  0.45920000  1
  C  C177  1  0.28880000  0.31690000  0.46000000  1
  C  C178  1  0.27790000  0.30650000  0.48820000  1
  C  C179  1  0.22000000  0.32560000  0.51690000  1
  C  C180  1  0.17410000  0.35460000  0.51680000  1
  C  C181  1  0.32690000  0.27520000  0.48890000  1
  C  C182  1  0.41450000  0.27650000  0.48990000  1
  C  C183  1  0.46130000  0.30720000  0.49040000  1
  C  C184  1  0.45680000  0.24350000  0.48700000  1
  C  C185  1  0.28810000  0.24425000  0.48850000  1
  C  C186  1  0.13370000  0.49130000  0.09280000  1
  C  C187  1  0.18210000  0.49030000  0.12390000  1
  C  C188  1  0.23980000  0.45920000  0.11360000  1
  C  C189  1  0.28880000  0.46000000  0.14310000  1
  C  C190  1  0.27790000  0.48820000  0.18170000  1
  C  C191  1  0.22000000  0.51690000  0.19130000  1
  C  C192  1  0.17410000  0.51680000  0.16220000  1
  C  C193  1  0.32690000  0.48890000  0.21370000  1
  C  C194  1  0.41450000  0.48990000  0.21340000  1
  C  C195  1  0.46130000  0.49040000  0.18320000  1
  C  C196  1  0.45680000  0.48700000  0.24350000  1
  C  C197  1  0.28810000  0.48850000  0.24425000  1
  C  C198  1  0.13370000  0.09280000  0.60150000  1
  C  C199  1  0.18210000  0.12390000  0.63360000  1
  C  C200  1  0.23980000  0.11360000  0.65440000  1
  C  C201  1  0.28880000  0.14310000  0.68310000  1
  C  C202  1  0.27790000  0.18170000  0.69350000  1
  C  C203  1  0.22000000  0.19130000  0.67440000  1
  C  C204  1  0.17410000  0.16220000  0.64540000  1
  C  C205  1  0.32690000  0.21370000  0.72480000  1
  C  C206  1  0.41450000  0.21340000  0.72350000  1
  C  C207  1  0.46130000  0.18320000  0.69280000  1
  C  C208  1  0.45680000  0.24350000  0.75650000  1
  C  C209  1  0.28810000  0.24425000  0.75575000  1
  C  C210  1  0.13370000  0.60150000  0.50870000  1
  C  C211  1  0.18210000  0.63360000  0.50970000  1
  C  C212  1  0.23980000  0.65440000  0.54080000  1
  C  C213  1  0.28880000  0.68310000  0.54000000  1
  C  C214  1  0.27790000  0.69350000  0.51180000  1
  C  C215  1  0.22000000  0.67440000  0.48310000  1
  C  C216  1  0.17410000  0.64540000  0.48320000  1
  C  C217  1  0.32690000  0.72480000  0.51110000  1
  C  C218  1  0.41450000  0.72350000  0.51010000  1
  C  C219  1  0.46130000  0.69280000  0.50960000  1
  C  C220  1  0.45680000  0.75650000  0.51300000  1
  C  C221  1  0.28810000  0.75575000  0.51150000  1
  C  C222  1  0.86630000  0.39850000  0.90720000  1
  C  C223  1  0.81790000  0.36640000  0.87610000  1
  C  C224  1  0.76020000  0.34560000  0.88640000  1
  C  C225  1  0.71120000  0.31690000  0.85690000  1
  C  C226  1  0.72210000  0.30650000  0.81830000  1
  C  C227  1  0.78000000  0.32560000  0.80870000  1
  C  C228  1  0.82590000  0.35460000  0.83780000  1
  C  C229  1  0.67310000  0.27520000  0.78630000  1
  C  C230  1  0.58550000  0.27650000  0.78660000  1
  C  C231  1  0.53870000  0.30720000  0.81680000  1
  C  C232  1  0.54320000  0.24350000  0.75650000  1
  C  C233  1  0.71190000  0.24425000  0.75575000  1
  C  C234  1  0.86630000  0.90720000  0.50870000  1
  C  C235  1  0.81790000  0.87610000  0.50970000  1
  C  C236  1  0.76020000  0.88640000  0.54080000  1
  C  C237  1  0.71120000  0.85690000  0.54000000  1
  C  C238  1  0.72210000  0.81830000  0.51180000  1
  C  C239  1  0.78000000  0.80870000  0.48310000  1
  C  C240  1  0.82590000  0.83780000  0.48320000  1
  C  C241  1  0.67310000  0.78630000  0.51110000  1
  C  C242  1  0.58550000  0.78660000  0.51010000  1
  C  C243  1  0.53870000  0.81680000  0.50960000  1
  C  C244  1  0.54320000  0.75650000  0.51300000  1
  C  C245  1  0.71190000  0.75575000  0.51150000  1
  C  C246  1  0.86630000  0.50870000  0.60150000  1
  C  C247  1  0.81790000  0.50970000  0.63360000  1
  C  C248  1  0.76020000  0.54080000  0.65440000  1
  C  C249  1  0.71120000  0.54000000  0.68310000  1
  C  C250  1  0.72210000  0.51180000  0.69350000  1
  C  C251  1  0.78000000  0.48310000  0.67440000  1
  C  C252  1  0.82590000  0.48320000  0.64540000  1
  C  C253  1  0.67310000  0.51110000  0.72480000  1
  C  C254  1  0.58550000  0.51010000  0.72350000  1
  C  C255  1  0.53870000  0.50960000  0.69280000  1
  C  C256  1  0.54320000  0.51300000  0.75650000  1
  C  C257  1  0.71190000  0.51150000  0.75575000  1
  C  C258  1  0.86630000  0.60150000  0.09280000  1
  C  C259  1  0.81790000  0.63360000  0.12390000  1
  C  C260  1  0.76020000  0.65440000  0.11360000  1
  C  C261  1  0.71120000  0.68310000  0.14310000  1
  C  C262  1  0.72210000  0.69350000  0.18170000  1
  C  C263  1  0.78000000  0.67440000  0.19130000  1
  C  C264  1  0.82590000  0.64540000  0.16220000  1
  C  C265  1  0.67310000  0.72480000  0.21370000  1
  C  C266  1  0.58550000  0.72350000  0.21340000  1
  C  C267  1  0.53870000  0.69280000  0.18320000  1
  C  C268  1  0.54320000  0.75650000  0.24350000  1
  C  C269  1  0.71190000  0.75575000  0.24425000  1
  C  C270  1  0.86630000  0.09280000  0.49130000  1
  C  C271  1  0.81790000  0.12390000  0.49030000  1
  C  C272  1  0.76020000  0.11360000  0.45920000  1
  C  C273  1  0.71120000  0.14310000  0.46000000  1
  C  C274  1  0.72210000  0.18170000  0.48820000  1
  C  C275  1  0.78000000  0.19130000  0.51690000  1
  C  C276  1  0.82590000  0.16220000  0.51680000  1
  C  C277  1  0.67310000  0.21370000  0.48890000  1
  C  C278  1  0.58550000  0.21340000  0.48990000  1
  C  C279  1  0.53870000  0.18320000  0.49040000  1
  C  C280  1  0.54320000  0.24350000  0.48700000  1
  C  C281  1  0.71190000  0.24425000  0.48850000  1
  C  C282  1  0.86630000  0.49130000  0.39850000  1
  C  C283  1  0.81790000  0.49030000  0.36640000  1
  C  C284  1  0.76020000  0.45920000  0.34560000  1
  C  C285  1  0.71120000  0.46000000  0.31690000  1
  C  C286  1  0.72210000  0.48820000  0.30650000  1
  C  C287  1  0.78000000  0.51690000  0.32560000  1
  C  C288  1  0.82590000  0.51680000  0.35460000  1
  C  C289  1  0.67310000  0.48890000  0.27520000  1
  C  C290  1  0.58550000  0.48990000  0.27650000  1
  C  C291  1  0.53870000  0.49040000  0.30720000  1
  C  C292  1  0.54320000  0.48700000  0.24350000  1
  C  C293  1  0.71190000  0.48850000  0.24425000  1
  C  C294  1  0.86630000  0.49130000  0.09280000  1
  C  C295  1  0.81790000  0.49030000  0.12390000  1
  C  C296  1  0.76020000  0.45920000  0.11360000  1
  C  C297  1  0.71120000  0.46000000  0.14310000  1
  C  C298  1  0.72210000  0.48820000  0.18170000  1
  C  C299  1  0.78000000  0.51690000  0.19130000  1
  C  C300  1  0.82590000  0.51680000  0.16220000  1
  C  C301  1  0.67310000  0.48890000  0.21370000  1
  C  C302  1  0.58550000  0.48990000  0.21340000  1
  C  C303  1  0.53870000  0.49040000  0.18320000  1
  C  C304  1  0.86630000  0.09280000  0.60150000  1
  C  C305  1  0.81790000  0.12390000  0.63360000  1
  C  C306  1  0.76020000  0.11360000  0.65440000  1
  C  C307  1  0.71120000  0.14310000  0.68310000  1
  C  C308  1  0.72210000  0.18170000  0.69350000  1
  C  C309  1  0.78000000  0.19130000  0.67440000  1
  C  C310  1  0.82590000  0.16220000  0.64540000  1
  C  C311  1  0.67310000  0.21370000  0.72480000  1
  C  C312  1  0.58550000  0.21340000  0.72350000  1
  C  C313  1  0.53870000  0.18320000  0.69280000  1
  C  C314  1  0.86630000  0.60150000  0.50870000  1
  C  C315  1  0.81790000  0.63360000  0.50970000  1
  C  C316  1  0.76020000  0.65440000  0.54080000  1
  C  C317  1  0.71120000  0.68310000  0.54000000  1
  C  C318  1  0.72210000  0.69350000  0.51180000  1
  C  C319  1  0.78000000  0.67440000  0.48310000  1
  C  C320  1  0.82590000  0.64540000  0.48320000  1
  C  C321  1  0.67310000  0.72480000  0.51110000  1
  C  C322  1  0.58550000  0.72350000  0.51010000  1
  C  C323  1  0.53870000  0.69280000  0.50960000  1
  C  C324  1  0.86630000  0.50870000  0.90720000  1
  C  C325  1  0.81790000  0.50970000  0.87610000  1
  C  C326  1  0.76020000  0.54080000  0.88640000  1
  C  C327  1  0.71120000  0.54000000  0.85690000  1
  C  C328  1  0.72210000  0.51180000  0.81830000  1
  C  C329  1  0.78000000  0.48310000  0.80870000  1
  C  C330  1  0.82590000  0.48320000  0.83780000  1
  C  C331  1  0.67310000  0.51110000  0.78630000  1
  C  C332  1  0.58550000  0.51010000  0.78660000  1
  C  C333  1  0.53870000  0.50960000  0.81680000  1
  C  C334  1  0.86630000  0.90720000  0.39850000  1
  C  C335  1  0.81790000  0.87610000  0.36640000  1
  C  C336  1  0.76020000  0.88640000  0.34560000  1
  C  C337  1  0.71120000  0.85690000  0.31690000  1
  C  C338  1  0.72210000  0.81830000  0.30650000  1
  C  C339  1  0.78000000  0.80870000  0.32560000  1
  C  C340  1  0.82590000  0.83780000  0.35460000  1
  C  C341  1  0.67310000  0.78630000  0.27520000  1
  C  C342  1  0.58550000  0.78660000  0.27650000  1
  C  C343  1  0.53870000  0.81680000  0.30720000  1
  C  C344  1  0.86630000  0.39850000  0.49130000  1
  C  C345  1  0.81790000  0.36640000  0.49030000  1
  C  C346  1  0.76020000  0.34560000  0.45920000  1
  C  C347  1  0.71120000  0.31690000  0.46000000  1
  C  C348  1  0.72210000  0.30650000  0.48820000  1
  C  C349  1  0.78000000  0.32560000  0.51690000  1
  C  C350  1  0.82590000  0.35460000  0.51680000  1
  C  C351  1  0.67310000  0.27520000  0.48890000  1
  C  C352  1  0.58550000  0.27650000  0.48990000  1
  C  C353  1  0.53870000  0.30720000  0.49040000  1
  C  C354  1  0.13370000  0.60150000  0.09280000  1
  C  C355  1  0.18210000  0.63360000  0.12390000  1
  C  C356  1  0.23980000  0.65440000  0.11360000  1
  C  C357  1  0.28880000  0.68310000  0.14310000  1
  C  C358  1  0.27790000  0.69350000  0.18170000  1
  C  C359  1  0.22000000  0.67440000  0.19130000  1
  C  C360  1  0.17410000  0.64540000  0.16220000  1
  C  C361  1  0.32690000  0.72480000  0.21370000  1
  C  C362  1  0.41450000  0.72350000  0.21340000  1
  C  C363  1  0.46130000  0.69280000  0.18320000  1
  C  C364  1  0.13370000  0.09280000  0.49130000  1
  C  C365  1  0.18210000  0.12390000  0.49030000  1
  C  C366  1  0.23980000  0.11360000  0.45920000  1
  C  C367  1  0.28880000  0.14310000  0.46000000  1
  C  C368  1  0.27790000  0.18170000  0.48820000  1
  C  C369  1  0.22000000  0.19130000  0.51690000  1
  C  C370  1  0.17410000  0.16220000  0.51680000  1
  C  C371  1  0.32690000  0.21370000  0.48890000  1
  C  C372  1  0.41450000  0.21340000  0.48990000  1
  C  C373  1  0.46130000  0.18320000  0.49040000  1
  C  C374  1  0.13370000  0.49130000  0.39850000  1
  C  C375  1  0.18210000  0.49030000  0.36640000  1
  C  C376  1  0.23980000  0.45920000  0.34560000  1
  C  C377  1  0.28880000  0.46000000  0.31690000  1
  C  C378  1  0.27790000  0.48820000  0.30650000  1
  C  C379  1  0.22000000  0.51690000  0.32560000  1
  C  C380  1  0.17410000  0.51680000  0.35460000  1
  C  C381  1  0.32690000  0.48890000  0.27520000  1
  C  C382  1  0.41450000  0.48990000  0.27650000  1
  C  C383  1  0.46130000  0.49040000  0.30720000  1
  C  C384  1  0.13370000  0.39850000  0.90720000  1
  C  C385  1  0.18210000  0.36640000  0.87610000  1
  C  C386  1  0.23980000  0.34560000  0.88640000  1
  C  C387  1  0.28880000  0.31690000  0.85690000  1
  C  C388  1  0.27790000  0.30650000  0.81830000  1
  C  C389  1  0.22000000  0.32560000  0.80870000  1
  C  C390  1  0.17410000  0.35460000  0.83780000  1
  C  C391  1  0.32690000  0.27520000  0.78630000  1
  C  C392  1  0.41450000  0.27650000  0.78660000  1
  C  C393  1  0.46130000  0.30720000  0.81680000  1
  C  C394  1  0.13370000  0.90720000  0.50870000  1
  C  C395  1  0.18210000  0.87610000  0.50970000  1
  C  C396  1  0.23980000  0.88640000  0.54080000  1
  C  C397  1  0.28880000  0.85690000  0.54000000  1
  C  C398  1  0.27790000  0.81830000  0.51180000  1
  C  C399  1  0.22000000  0.80870000  0.48310000  1
  C  C400  1  0.17410000  0.83780000  0.48320000  1
  C  C401  1  0.32690000  0.78630000  0.51110000  1
  C  C402  1  0.41450000  0.78660000  0.51010000  1
  C  C403  1  0.46130000  0.81680000  0.50960000  1
  C  C404  1  0.13370000  0.50870000  0.60150000  1
  C  C405  1  0.18210000  0.50970000  0.63360000  1
  C  C406  1  0.23980000  0.54080000  0.65440000  1
  C  C407  1  0.28880000  0.54000000  0.68310000  1
  C  C408  1  0.27790000  0.51180000  0.69350000  1
  C  C409  1  0.22000000  0.48310000  0.67440000  1
  C  C410  1  0.17410000  0.48320000  0.64540000  1
  C  C411  1  0.32690000  0.51110000  0.72480000  1
  C  C412  1  0.41450000  0.51010000  0.72350000  1
  C  C413  1  0.46130000  0.50960000  0.69280000  1
  O  O414  1  0.15150000  0.53402000  0.94225000  1
  O  O415  1  0.08410000  0.48256000  0.89553000  1
  O  O416  1  0.10840000  0.49910000  0.95680000  1
  O  O417  1  1.00000000  0.56860000  0.03659000  1
  O  O418  1  0.10480000  0.48248000  0.96496000  1
  O  O419  1  0.15150000  0.94225000  0.40823000  1
  O  O420  1  0.08410000  0.89553000  0.41297000  1
  O  O421  1  0.10840000  0.95680000  0.45770000  1
  O  O422  1  1.00000000  0.03659000  0.46799000  1
  O  O423  1  0.10480000  0.96496000  0.48248000  1
  O  O424  1  0.15150000  0.40823000  0.46598000  1
  O  O425  1  0.08410000  0.41297000  0.51744000  1
  O  O426  1  0.10840000  0.45770000  0.50090000  1
  O  O427  1  1.00000000  0.46799000  0.43140000  1
  O  O428  1  0.10480000  0.48248000  0.51752000  1
  O  O429  1  0.15150000  0.46598000  0.05775000  1
  O  O430  1  0.08410000  0.51744000  0.10447000  1
  O  O431  1  0.10840000  0.50090000  0.04320000  1
  O  O432  1  0.00000000  0.43140000  0.96341000  1
  O  O433  1  0.10480000  0.51752000  0.03504000  1
  O  O434  1  0.15150000  0.05775000  0.59177000  1
  O  O435  1  0.08410000  0.10447000  0.58703000  1
  O  O436  1  0.10840000  0.04320000  0.54230000  1
  O  O437  1  1.00000000  0.96341000  0.53201000  1
  O  O438  1  0.10480000  0.03504000  0.51752000  1
  O  O439  1  0.15150000  0.59177000  0.53402000  1
  O  O440  1  0.08410000  0.58703000  0.48256000  1
  O  O441  1  0.10840000  0.54230000  0.49910000  1
  O  O442  1  1.00000000  0.53201000  0.56860000  1
  O  O443  1  0.10480000  0.51752000  0.48248000  1
  O  O444  1  0.84850000  0.40823000  0.94225000  1
  O  O445  1  0.91590000  0.41297000  0.89553000  1
  O  O446  1  0.89160000  0.45770000  0.95680000  1
  O  O447  1  0.00000000  0.46799000  0.03659000  1
  O  O448  1  0.89520000  0.48248000  0.96496000  1
  O  O449  1  0.84850000  0.94225000  0.53402000  1
  O  O450  1  0.91590000  0.89553000  0.48256000  1
  O  O451  1  0.89160000  0.95680000  0.49910000  1
  O  O452  1  1.00000000  0.03659000  0.56860000  1
  O  O453  1  0.89520000  0.96496000  0.48248000  1
  O  O454  1  0.84850000  0.53402000  0.59177000  1
  O  O455  1  0.91590000  0.48256000  0.58703000  1
  O  O456  1  0.89160000  0.49910000  0.54230000  1
  O  O457  1  0.00000000  0.56860000  0.53201000  1
  O  O458  1  0.89520000  0.48248000  0.51752000  1
  O  O459  1  0.84850000  0.59177000  0.05775000  1
  O  O460  1  0.91590000  0.58703000  0.10447000  1
  O  O461  1  0.89160000  0.54230000  0.04320000  1
  O  O462  1  1.00000000  0.53201000  0.96341000  1
  O  O463  1  0.89520000  0.51752000  0.03504000  1
  O  O464  1  0.84850000  0.05775000  0.46598000  1
  O  O465  1  0.91590000  0.10447000  0.51744000  1
  O  O466  1  0.89160000  0.04320000  0.50090000  1
  O  O467  1  1.00000000  0.96341000  0.43140000  1
  O  O468  1  0.89520000  0.03504000  0.51752000  1
  O  O469  1  0.84850000  0.46598000  0.40823000  1
  O  O470  1  0.91590000  0.51744000  0.41297000  1
  O  O471  1  0.89160000  0.50090000  0.45770000  1
  O  O472  1  1.00000000  0.43140000  0.46799000  1
  O  O473  1  0.89520000  0.51752000  0.48248000  1
  O  O474  1  0.84850000  0.46598000  0.05775000  1
  O  O475  1  0.91590000  0.51744000  0.10447000  1
  O  O476  1  0.89160000  0.50090000  0.04320000  1
  O  O477  1  0.84850000  0.05775000  0.59177000  1
  O  O478  1  0.91590000  0.10447000  0.58703000  1
  O  O479  1  0.89160000  0.04320000  0.54230000  1
  O  O480  1  0.84850000  0.59177000  0.53402000  1
  O  O481  1  0.91590000  0.58703000  0.48256000  1
  O  O482  1  0.89160000  0.54230000  0.49910000  1
  O  O483  1  0.84850000  0.53402000  0.94225000  1
  O  O484  1  0.91590000  0.48256000  0.89553000  1
  O  O485  1  0.89160000  0.49910000  0.95680000  1
  O  O486  1  0.84850000  0.94225000  0.40823000  1
  O  O487  1  0.91590000  0.89553000  0.41297000  1
  O  O488  1  0.89160000  0.95680000  0.45770000  1
  O  O489  1  0.84850000  0.40823000  0.46598000  1
  O  O490  1  0.91590000  0.41297000  0.51744000  1
  O  O491  1  0.89160000  0.45770000  0.50090000  1
  O  O492  1  0.15150000  0.59177000  0.05775000  1
  O  O493  1  0.08410000  0.58703000  0.10447000  1
  O  O494  1  0.10840000  0.54230000  0.04320000  1
  O  O495  1  0.15150000  0.05775000  0.46598000  1
  O  O496  1  0.08410000  0.10447000  0.51744000  1
  O  O497  1  0.10840000  0.04320000  0.50090000  1
  O  O498  1  0.15150000  0.46598000  0.40823000  1
  O  O499  1  0.08410000  0.51744000  0.41297000  1
  O  O500  1  0.10840000  0.50090000  0.45770000  1
  O  O501  1  0.15150000  0.40823000  0.94225000  1
  O  O502  1  0.08410000  0.41297000  0.89553000  1
  O  O503  1  0.10840000  0.45770000  0.95680000  1
  O  O504  1  0.15150000  0.94225000  0.53402000  1
  O  O505  1  0.08410000  0.89553000  0.48256000  1
  O  O506  1  0.10840000  0.95680000  0.49910000  1
  O  O507  1  0.15150000  0.53402000  0.59177000  1
  O  O508  1  0.08410000  0.48256000  0.58703000  1
  O  O509  1  0.10840000  0.49910000  0.54230000  1
