# generated using pymatgen
data_Zr3H24C54(O4F3)4
_symmetry_space_group_name_H-M   'P 1'
_cell_length_a   16.46920000
_cell_length_b   39.34100000
_cell_length_c   39.34100000
_cell_angle_alpha   120.00000000
_cell_angle_beta   90.00000000
_cell_angle_gamma   90.00000000
_symmetry_Int_Tables_number   1
_chemical_formula_structural   Zr3H24C54(O4F3)4
_chemical_formula_sum   'Zr18 H144 C324 O96 F72'
_cell_volume   22074.65502045
_cell_formula_units_Z   6
loop_
 _symmetry_equiv_pos_site_id
 _symmetry_equiv_pos_as_xyz
  1  'x, y, z'
loop_
 _atom_site_type_symbol
 _atom_site_label
 _atom_site_symmetry_multiplicity
 _atom_site_fract_x
 _atom_site_fract_y
 _atom_site_fract_z
 _atom_site_occupancy
  Zr  Zr0  1  0.39309000  0.45521000  0.45521000  1
  Zr  Zr1  1  0.39309000  0.00000000  0.54479000  1
  Zr  Zr2  1  0.39309000  0.54479000  0.00000000  1
  Zr  Zr3  1  0.39309000  0.54479000  0.54479000  1
  Zr  Zr4  1  0.39309000  1.00000000  0.45521000  1
  Zr  Zr5  1  0.39309000  0.45521000  0.00000000  1
  Zr  Zr6  1  0.60691000  0.00000000  0.54479000  1
  Zr  Zr7  1  0.60691000  0.45521000  0.45521000  1
  Zr  Zr8  1  0.60691000  0.54479000  0.00000000  1
  Zr  Zr9  1  0.60691000  1.00000000  0.45521000  1
  Zr  Zr10  1  0.60691000  0.54479000  0.54479000  1
  Zr  Zr11  1  0.60691000  0.45521000  0.00000000  1
  Zr  Zr12  1  0.50000000  0.46342000  0.53659000  1
  Zr  Zr13  1  0.50000000  0.07317000  0.53658000  1
  Zr  Zr14  1  0.50000000  0.46341000  0.92683000  1
  Zr  Zr15  1  0.50000000  0.53658000  0.46341000  1
  Zr  Zr16  1  0.50000000  0.92683000  0.46342000  1
  Zr  Zr17  1  0.50000000  0.53659000  0.07317000  1
  H  H18  1  0.25181000  0.35358000  0.44167000  1
  H  H19  1  0.16999000  0.30607000  0.44362000  1
  H  H20  1  0.28913000  0.31953000  0.53927000  1
  H  H21  1  0.36706000  0.36872000  0.54010000  1
  H  H22  1  0.06933000  0.33107000  0.49480000  1
  H  H23  1  0.25181000  0.08809000  0.64642000  1
  H  H24  1  0.16999000  0.13755000  0.69393000  1
  H  H25  1  0.28913000  0.21974000  0.68047000  1
  H  H26  1  0.36706000  0.17138000  0.63128000  1
  H  H27  1  0.06933000  0.16373000  0.66893000  1
  H  H28  1  0.25181000  0.55833000  0.91191000  1
  H  H29  1  0.16999000  0.55638000  0.86245000  1
  H  H30  1  0.28913000  0.46073000  0.78026000  1
  H  H31  1  0.36706000  0.45990000  0.82862000  1
  H  H32  1  0.06933000  0.50520000  0.83627000  1
  H  H33  1  0.25181000  0.64642000  0.55833000  1
  H  H34  1  0.16999000  0.69393000  0.55638000  1
  H  H35  1  0.28913000  0.68047000  0.46073000  1
  H  H36  1  0.36706000  0.63128000  0.45990000  1
  H  H37  1  0.06933000  0.66893000  0.50520000  1
  H  H38  1  0.25181000  0.91191000  0.35358000  1
  H  H39  1  0.16999000  0.86245000  0.30607000  1
  H  H40  1  0.28913000  0.78026000  0.31953000  1
  H  H41  1  0.36706000  0.82862000  0.36872000  1
  H  H42  1  0.06933000  0.83627000  0.33107000  1
  H  H43  1  0.25181000  0.44167000  0.08809000  1
  H  H44  1  0.16999000  0.44362000  0.13755000  1
  H  H45  1  0.28913000  0.53927000  0.21974000  1
  H  H46  1  0.36706000  0.54010000  0.17138000  1
  H  H47  1  0.06933000  0.49480000  0.16373000  1
  H  H48  1  0.74819000  0.91191000  0.55833000  1
  H  H49  1  0.83001000  0.86245000  0.55638000  1
  H  H50  1  0.71087000  0.78026000  0.46073000  1
  H  H51  1  0.63294000  0.82862000  0.45990000  1
  H  H52  1  0.93067000  0.83627000  0.50520000  1
  H  H53  1  0.74819000  0.44167000  0.35358000  1
  H  H54  1  0.83001000  0.44362000  0.30607000  1
  H  H55  1  0.71087000  0.53927000  0.31953000  1
  H  H56  1  0.63294000  0.54010000  0.36872000  1
  H  H57  1  0.93067000  0.49480000  0.33107000  1
  H  H58  1  0.74819000  0.64642000  0.08809000  1
  H  H59  1  0.83001000  0.69393000  0.13755000  1
  H  H60  1  0.71087000  0.68047000  0.21974000  1
  H  H61  1  0.63294000  0.63128000  0.17138000  1
  H  H62  1  0.93067000  0.66893000  0.16373000  1
  H  H63  1  0.74819000  0.08809000  0.44167000  1
  H  H64  1  0.83001000  0.13755000  0.44362000  1
  H  H65  1  0.71087000  0.21974000  0.53927000  1
  H  H66  1  0.63294000  0.17138000  0.54010000  1
  H  H67  1  0.93067000  0.16373000  0.49480000  1
  H  H68  1  0.74819000  0.55833000  0.64642000  1
  H  H69  1  0.83001000  0.55638000  0.69393000  1
  H  H70  1  0.71087000  0.46073000  0.68047000  1
  H  H71  1  0.63294000  0.45990000  0.63128000  1
  H  H72  1  0.93067000  0.50520000  0.66893000  1
  H  H73  1  0.74819000  0.35358000  0.91191000  1
  H  H74  1  0.83001000  0.30607000  0.86245000  1
  H  H75  1  0.71087000  0.31953000  0.78026000  1
  H  H76  1  0.63294000  0.36872000  0.82862000  1
  H  H77  1  0.93067000  0.33107000  0.83627000  1
  H  H78  1  0.74819000  0.64642000  0.55833000  1
  H  H79  1  0.83001000  0.69393000  0.55638000  1
  H  H80  1  0.71087000  0.68047000  0.46073000  1
  H  H81  1  0.63294000  0.63128000  0.45990000  1
  H  H82  1  0.93067000  0.66893000  0.50520000  1
  H  H83  1  0.74819000  0.91191000  0.35358000  1
  H  H84  1  0.83001000  0.86245000  0.30607000  1
  H  H85  1  0.71087000  0.78026000  0.31953000  1
  H  H86  1  0.63294000  0.82862000  0.36872000  1
  H  H87  1  0.93067000  0.83627000  0.33107000  1
  H  H88  1  0.74819000  0.44167000  0.08809000  1
  H  H89  1  0.83001000  0.44362000  0.13755000  1
  H  H90  1  0.71087000  0.53927000  0.21974000  1
  H  H91  1  0.63294000  0.54010000  0.17138000  1
  H  H92  1  0.93067000  0.49480000  0.16373000  1
  H  H93  1  0.74819000  0.35358000  0.44167000  1
  H  H94  1  0.83001000  0.30607000  0.44362000  1
  H  H95  1  0.71087000  0.31953000  0.53927000  1
  H  H96  1  0.63294000  0.36872000  0.54010000  1
  H  H97  1  0.93067000  0.33107000  0.49480000  1
  H  H98  1  0.74819000  0.08809000  0.64642000  1
  H  H99  1  0.83001000  0.13755000  0.69393000  1
  H  H100  1  0.71087000  0.21974000  0.68047000  1
  H  H101  1  0.63294000  0.17138000  0.63128000  1
  H  H102  1  0.93067000  0.16373000  0.66893000  1
  H  H103  1  0.74819000  0.55833000  0.91191000  1
  H  H104  1  0.83001000  0.55638000  0.86245000  1
  H  H105  1  0.71087000  0.46073000  0.78026000  1
  H  H106  1  0.63294000  0.45990000  0.82862000  1
  H  H107  1  0.93067000  0.50520000  0.83627000  1
  H  H108  1  0.25181000  0.08809000  0.44167000  1
  H  H109  1  0.16999000  0.13755000  0.44362000  1
  H  H110  1  0.28913000  0.21974000  0.53927000  1
  H  H111  1  0.36706000  0.17138000  0.54010000  1
  H  H112  1  0.06933000  0.16373000  0.49480000  1
  H  H113  1  0.25181000  0.55833000  0.64642000  1
  H  H114  1  0.16999000  0.55638000  0.69393000  1
  H  H115  1  0.28913000  0.46073000  0.68047000  1
  H  H116  1  0.36706000  0.45990000  0.63128000  1
  H  H117  1  0.06933000  0.50520000  0.66893000  1
  H  H118  1  0.25181000  0.35358000  0.91191000  1
  H  H119  1  0.16999000  0.30607000  0.86245000  1
  H  H120  1  0.28913000  0.31953000  0.78026000  1
  H  H121  1  0.36706000  0.36872000  0.82862000  1
  H  H122  1  0.06933000  0.33107000  0.83627000  1
  H  H123  1  0.25181000  0.91191000  0.55833000  1
  H  H124  1  0.16999000  0.86245000  0.55638000  1
  H  H125  1  0.28913000  0.78026000  0.46073000  1
  H  H126  1  0.36706000  0.82862000  0.45990000  1
  H  H127  1  0.06933000  0.83627000  0.50520000  1
  H  H128  1  0.25181000  0.44167000  0.35358000  1
  H  H129  1  0.16999000  0.44362000  0.30607000  1
  H  H130  1  0.28913000  0.53927000  0.31953000  1
  H  H131  1  0.36706000  0.54010000  0.36872000  1
  H  H132  1  0.06933000  0.49480000  0.33107000  1
  H  H133  1  0.25181000  0.64642000  0.08809000  1
  H  H134  1  0.16999000  0.69393000  0.13755000  1
  H  H135  1  0.28913000  0.68047000  0.21974000  1
  H  H136  1  0.36706000  0.63128000  0.17138000  1
  H  H137  1  0.06933000  0.66893000  0.16373000  1
  H  H138  1  0.26999000  0.24666000  0.49332000  1
  H  H139  1  0.26999000  0.24666000  0.75334000  1
  H  H140  1  0.26999000  0.50668000  0.75334000  1
  H  H141  1  0.26999000  0.75334000  0.50668000  1
  H  H142  1  0.26999000  0.75334000  0.24666000  1
  H  H143  1  0.26999000  0.49332000  0.24666000  1
  H  H144  1  0.73001000  0.75334000  0.50668000  1
  H  H145  1  0.73001000  0.49332000  0.24666000  1
  H  H146  1  0.73001000  0.75334000  0.24666000  1
  H  H147  1  0.73001000  0.24666000  0.49332000  1
  H  H148  1  0.73001000  0.50668000  0.75334000  1
  H  H149  1  0.73001000  0.24666000  0.75334000  1
  H  H150  1  0.19045000  0.37174000  0.00000000  1
  H  H151  1  0.80955000  0.37174000  0.00000000  1
  H  H152  1  0.19045000  0.62826000  0.00000000  1
  H  H153  1  0.80955000  0.62826000  0.00000000  1
  H  H154  1  0.19045000  1.00000000  0.37174000  1
  H  H155  1  0.80955000  1.00000000  0.37174000  1
  H  H156  1  0.80955000  0.00000000  0.62826000  1
  H  H157  1  0.19045000  0.00000000  0.62826000  1
  H  H158  1  0.19045000  0.37174000  0.37174000  1
  H  H159  1  0.19045000  0.62826000  0.62826000  1
  H  H160  1  0.80955000  0.37174000  0.37174000  1
  H  H161  1  0.80955000  0.62826000  0.62826000  1
  C  C162  1  0.36640000  0.39840000  0.49170000  1
  C  C163  1  0.31610000  0.36600000  0.49070000  1
  C  C164  1  0.25870000  0.34720000  0.46180000  1
  C  C165  1  0.21100000  0.31870000  0.46290000  1
  C  C166  1  0.22120000  0.30840000  0.49110000  1
  C  C167  1  0.28110000  0.32700000  0.52000000  1
  C  C168  1  0.32730000  0.35560000  0.52020000  1
  C  C169  1  0.04090000  0.30950000  0.49360000  1
  C  C170  1  0.08620000  0.27690000  0.49180000  1
  C  C171  1  0.17280000  0.27720000  0.49200000  1
  C  C172  1  0.36640000  0.09330000  0.60160000  1
  C  C173  1  0.31610000  0.12470000  0.63400000  1
  C  C174  1  0.25870000  0.11460000  0.65280000  1
  C  C175  1  0.21100000  0.14420000  0.68130000  1
  C  C176  1  0.22120000  0.18270000  0.69160000  1
  C  C177  1  0.28110000  0.19300000  0.67300000  1
  C  C178  1  0.32730000  0.16460000  0.64440000  1
  C  C179  1  0.04090000  0.18410000  0.69050000  1
  C  C180  1  0.08620000  0.21490000  0.72310000  1
  C  C181  1  0.17280000  0.21480000  0.72280000  1
  C  C182  1  0.36640000  0.50830000  0.90670000  1
  C  C183  1  0.31610000  0.50930000  0.87530000  1
  C  C184  1  0.25870000  0.53820000  0.88540000  1
  C  C185  1  0.21100000  0.53710000  0.85580000  1
  C  C186  1  0.22120000  0.50890000  0.81730000  1
  C  C187  1  0.28110000  0.48000000  0.80700000  1
  C  C188  1  0.32730000  0.47980000  0.83540000  1
  C  C189  1  0.04090000  0.50640000  0.81590000  1
  C  C190  1  0.08620000  0.50820000  0.78510000  1
  C  C191  1  0.17280000  0.50800000  0.78520000  1
  C  C192  1  0.36640000  0.60160000  0.50830000  1
  C  C193  1  0.31610000  0.63400000  0.50930000  1
  C  C194  1  0.25870000  0.65280000  0.53820000  1
  C  C195  1  0.21100000  0.68130000  0.53710000  1
  C  C196  1  0.22120000  0.69160000  0.50890000  1
  C  C197  1  0.28110000  0.67300000  0.48000000  1
  C  C198  1  0.32730000  0.64440000  0.47980000  1
  C  C199  1  0.04090000  0.69050000  0.50640000  1
  C  C200  1  0.08620000  0.72310000  0.50820000  1
  C  C201  1  0.17280000  0.72280000  0.50800000  1
  C  C202  1  0.36640000  0.90670000  0.39840000  1
  C  C203  1  0.31610000  0.87530000  0.36600000  1
  C  C204  1  0.25870000  0.88540000  0.34720000  1
  C  C205  1  0.21100000  0.85580000  0.31870000  1
  C  C206  1  0.22120000  0.81730000  0.30840000  1
  C  C207  1  0.28110000  0.80700000  0.32700000  1
  C  C208  1  0.32730000  0.83540000  0.35560000  1
  C  C209  1  0.04090000  0.81590000  0.30950000  1
  C  C210  1  0.08620000  0.78510000  0.27690000  1
  C  C211  1  0.17280000  0.78520000  0.27720000  1
  C  C212  1  0.36640000  0.49170000  0.09330000  1
  C  C213  1  0.31610000  0.49070000  0.12470000  1
  C  C214  1  0.25870000  0.46180000  0.11460000  1
  C  C215  1  0.21100000  0.46290000  0.14420000  1
  C  C216  1  0.22120000  0.49110000  0.18270000  1
  C  C217  1  0.28110000  0.52000000  0.19300000  1
  C  C218  1  0.32730000  0.52020000  0.16460000  1
  C  C219  1  0.04090000  0.49360000  0.18410000  1
  C  C220  1  0.08620000  0.49180000  0.21490000  1
  C  C221  1  0.17280000  0.49200000  0.21480000  1
  C  C222  1  0.63360000  0.90670000  0.50830000  1
  C  C223  1  0.68390000  0.87530000  0.50930000  1
  C  C224  1  0.74130000  0.88540000  0.53820000  1
  C  C225  1  0.78900000  0.85580000  0.53710000  1
  C  C226  1  0.77880000  0.81730000  0.50890000  1
  C  C227  1  0.71890000  0.80700000  0.48000000  1
  C  C228  1  0.67270000  0.83540000  0.47980000  1
  C  C229  1  0.95910000  0.81590000  0.50640000  1
  C  C230  1  0.91380000  0.78510000  0.50820000  1
  C  C231  1  0.82720000  0.78520000  0.50800000  1
  C  C232  1  0.63360000  0.49170000  0.39840000  1
  C  C233  1  0.68390000  0.49070000  0.36600000  1
  C  C234  1  0.74130000  0.46180000  0.34720000  1
  C  C235  1  0.78900000  0.46290000  0.31870000  1
  C  C236  1  0.77880000  0.49110000  0.30840000  1
  C  C237  1  0.71890000  0.52000000  0.32700000  1
  C  C238  1  0.67270000  0.52020000  0.35560000  1
  C  C239  1  0.95910000  0.49360000  0.30950000  1
  C  C240  1  0.91380000  0.49180000  0.27690000  1
  C  C241  1  0.82720000  0.49200000  0.27720000  1
  C  C242  1  0.63360000  0.60160000  0.09330000  1
  C  C243  1  0.68390000  0.63400000  0.12470000  1
  C  C244  1  0.74130000  0.65280000  0.11460000  1
  C  C245  1  0.78900000  0.68130000  0.14420000  1
  C  C246  1  0.77880000  0.69160000  0.18270000  1
  C  C247  1  0.71890000  0.67300000  0.19300000  1
  C  C248  1  0.67270000  0.64440000  0.16460000  1
  C  C249  1  0.95910000  0.69050000  0.18410000  1
  C  C250  1  0.91380000  0.72310000  0.21490000  1
  C  C251  1  0.82720000  0.72280000  0.21480000  1
  C  C252  1  0.63360000  0.09330000  0.49170000  1
  C  C253  1  0.68390000  0.12470000  0.49070000  1
  C  C254  1  0.74130000  0.11460000  0.46180000  1
  C  C255  1  0.78900000  0.14420000  0.46290000  1
  C  C256  1  0.77880000  0.18270000  0.49110000  1
  C  C257  1  0.71890000  0.19300000  0.52000000  1
  C  C258  1  0.67270000  0.16460000  0.52020000  1
  C  C259  1  0.95910000  0.18410000  0.49360000  1
  C  C260  1  0.91380000  0.21490000  0.49180000  1
  C  C261  1  0.82720000  0.21480000  0.49200000  1
  C  C262  1  0.63360000  0.50830000  0.60160000  1
  C  C263  1  0.68390000  0.50930000  0.63400000  1
  C  C264  1  0.74130000  0.53820000  0.65280000  1
  C  C265  1  0.78900000  0.53710000  0.68130000  1
  C  C266  1  0.77880000  0.50890000  0.69160000  1
  C  C267  1  0.71890000  0.48000000  0.67300000  1
  C  C268  1  0.67270000  0.47980000  0.64440000  1
  C  C269  1  0.95910000  0.50640000  0.69050000  1
  C  C270  1  0.91380000  0.50820000  0.72310000  1
  C  C271  1  0.82720000  0.50800000  0.72280000  1
  C  C272  1  0.63360000  0.39840000  0.90670000  1
  C  C273  1  0.68390000  0.36600000  0.87530000  1
  C  C274  1  0.74130000  0.34720000  0.88540000  1
  C  C275  1  0.78900000  0.31870000  0.85580000  1
  C  C276  1  0.77880000  0.30840000  0.81730000  1
  C  C277  1  0.71890000  0.32700000  0.80700000  1
  C  C278  1  0.67270000  0.35560000  0.83540000  1
  C  C279  1  0.95910000  0.30950000  0.81590000  1
  C  C280  1  0.91380000  0.27690000  0.78510000  1
  C  C281  1  0.82720000  0.27720000  0.78520000  1
  C  C282  1  0.63360000  0.60160000  0.50830000  1
  C  C283  1  0.68390000  0.63400000  0.50930000  1
  C  C284  1  0.74130000  0.65280000  0.53820000  1
  C  C285  1  0.78900000  0.68130000  0.53710000  1
  C  C286  1  0.77880000  0.69160000  0.50890000  1
  C  C287  1  0.71890000  0.67300000  0.48000000  1
  C  C288  1  0.67270000  0.64440000  0.47980000  1
  C  C289  1  0.95910000  0.69050000  0.50640000  1
  C  C290  1  0.91380000  0.72310000  0.50820000  1
  C  C291  1  0.82720000  0.72280000  0.50800000  1
  C  C292  1  0.63360000  0.90670000  0.39840000  1
  C  C293  1  0.68390000  0.87530000  0.36600000  1
  C  C294  1  0.74130000  0.88540000  0.34720000  1
  C  C295  1  0.78900000  0.85580000  0.31870000  1
  C  C296  1  0.77880000  0.81730000  0.30840000  1
  C  C297  1  0.71890000  0.80700000  0.32700000  1
  C  C298  1  0.67270000  0.83540000  0.35560000  1
  C  C299  1  0.95910000  0.81590000  0.30950000  1
  C  C300  1  0.91380000  0.78510000  0.27690000  1
  C  C301  1  0.82720000  0.78520000  0.27720000  1
  C  C302  1  0.63360000  0.49170000  0.09330000  1
  C  C303  1  0.68390000  0.49070000  0.12470000  1
  C  C304  1  0.74130000  0.46180000  0.11460000  1
  C  C305  1  0.78900000  0.46290000  0.14420000  1
  C  C306  1  0.77880000  0.49110000  0.18270000  1
  C  C307  1  0.71890000  0.52000000  0.19300000  1
  C  C308  1  0.67270000  0.52020000  0.16460000  1
  C  C309  1  0.95910000  0.49360000  0.18410000  1
  C  C310  1  0.91380000  0.49180000  0.21490000  1
  C  C311  1  0.82720000  0.49200000  0.21480000  1
  C  C312  1  0.63360000  0.39840000  0.49170000  1
  C  C313  1  0.68390000  0.36600000  0.49070000  1
  C  C314  1  0.74130000  0.34720000  0.46180000  1
  C  C315  1  0.78900000  0.31870000  0.46290000  1
  C  C316  1  0.77880000  0.30840000  0.49110000  1
  C  C317  1  0.71890000  0.32700000  0.52000000  1
  C  C318  1  0.67270000  0.35560000  0.52020000  1
  C  C319  1  0.95910000  0.30950000  0.49360000  1
  C  C320  1  0.91380000  0.27690000  0.49180000  1
  C  C321  1  0.82720000  0.27720000  0.49200000  1
  C  C322  1  0.63360000  0.09330000  0.60160000  1
  C  C323  1  0.68390000  0.12470000  0.63400000  1
  C  C324  1  0.74130000  0.11460000  0.65280000  1
  C  C325  1  0.78900000  0.14420000  0.68130000  1
  C  C326  1  0.77880000  0.18270000  0.69160000  1
  C  C327  1  0.71890000  0.19300000  0.67300000  1
  C  C328  1  0.67270000  0.16460000  0.64440000  1
  C  C329  1  0.95910000  0.18410000  0.69050000  1
  C  C330  1  0.91380000  0.21490000  0.72310000  1
  C  C331  1  0.82720000  0.21480000  0.72280000  1
  C  C332  1  0.63360000  0.50830000  0.90670000  1
  C  C333  1  0.68390000  0.50930000  0.87530000  1
  C  C334  1  0.74130000  0.53820000  0.88540000  1
  C  C335  1  0.78900000  0.53710000  0.85580000  1
  C  C336  1  0.77880000  0.50890000  0.81730000  1
  C  C337  1  0.71890000  0.48000000  0.80700000  1
  C  C338  1  0.67270000  0.47980000  0.83540000  1
  C  C339  1  0.95910000  0.50640000  0.81590000  1
  C  C340  1  0.91380000  0.50820000  0.78510000  1
  C  C341  1  0.82720000  0.50800000  0.78520000  1
  C  C342  1  0.36640000  0.09330000  0.49170000  1
  C  C343  1  0.31610000  0.12470000  0.49070000  1
  C  C344  1  0.25870000  0.11460000  0.46180000  1
  C  C345  1  0.21100000  0.14420000  0.46290000  1
  C  C346  1  0.22120000  0.18270000  0.49110000  1
  C  C347  1  0.28110000  0.19300000  0.52000000  1
  C  C348  1  0.32730000  0.16460000  0.52020000  1
  C  C349  1  0.04090000  0.18410000  0.49360000  1
  C  C350  1  0.08620000  0.21490000  0.49180000  1
  C  C351  1  0.17280000  0.21480000  0.49200000  1
  C  C352  1  0.36640000  0.50830000  0.60160000  1
  C  C353  1  0.31610000  0.50930000  0.63400000  1
  C  C354  1  0.25870000  0.53820000  0.65280000  1
  C  C355  1  0.21100000  0.53710000  0.68130000  1
  C  C356  1  0.22120000  0.50890000  0.69160000  1
  C  C357  1  0.28110000  0.48000000  0.67300000  1
  C  C358  1  0.32730000  0.47980000  0.64440000  1
  C  C359  1  0.04090000  0.50640000  0.69050000  1
  C  C360  1  0.08620000  0.50820000  0.72310000  1
  C  C361  1  0.17280000  0.50800000  0.72280000  1
  C  C362  1  0.36640000  0.39840000  0.90670000  1
  C  C363  1  0.31610000  0.36600000  0.87530000  1
  C  C364  1  0.25870000  0.34720000  0.88540000  1
  C  C365  1  0.21100000  0.31870000  0.85580000  1
  C  C366  1  0.22120000  0.30840000  0.81730000  1
  C  C367  1  0.28110000  0.32700000  0.80700000  1
  C  C368  1  0.32730000  0.35560000  0.83540000  1
  C  C369  1  0.04090000  0.30950000  0.81590000  1
  C  C370  1  0.08620000  0.27690000  0.78510000  1
  C  C371  1  0.17280000  0.27720000  0.78520000  1
  C  C372  1  0.36640000  0.90670000  0.50830000  1
  C  C373  1  0.31610000  0.87530000  0.50930000  1
  C  C374  1  0.25870000  0.88540000  0.53820000  1
  C  C375  1  0.21100000  0.85580000  0.53710000  1
  C  C376  1  0.22120000  0.81730000  0.50890000  1
  C  C377  1  0.28110000  0.80700000  0.48000000  1
  C  C378  1  0.32730000  0.83540000  0.47980000  1
  C  C379  1  0.04090000  0.81590000  0.50640000  1
  C  C380  1  0.08620000  0.78510000  0.50820000  1
  C  C381  1  0.17280000  0.78520000  0.50800000  1
  C  C382  1  0.36640000  0.49170000  0.39840000  1
  C  C383  1  0.31610000  0.49070000  0.36600000  1
  C  C384  1  0.25870000  0.46180000  0.34720000  1
  C  C385  1  0.21100000  0.46290000  0.31870000  1
  C  C386  1  0.22120000  0.49110000  0.30840000  1
  C  C387  1  0.28110000  0.52000000  0.32700000  1
  C  C388  1  0.32730000  0.52020000  0.35560000  1
  C  C389  1  0.04090000  0.49360000  0.30950000  1
  C  C390  1  0.08620000  0.49180000  0.27690000  1
  C  C391  1  0.17280000  0.49200000  0.27720000  1
  C  C392  1  0.36640000  0.60160000  0.09330000  1
  C  C393  1  0.31610000  0.63400000  0.12470000  1
  C  C394  1  0.25870000  0.65280000  0.11460000  1
  C  C395  1  0.21100000  0.68130000  0.14420000  1
  C  C396  1  0.22120000  0.69160000  0.18270000  1
  C  C397  1  0.28110000  0.67300000  0.19300000  1
  C  C398  1  0.32730000  0.64440000  0.16460000  1
  C  C399  1  0.04090000  0.69050000  0.18410000  1
  C  C400  1  0.08620000  0.72310000  0.21490000  1
  C  C401  1  0.17280000  0.72280000  0.21480000  1
  C  C402  1  0.21230000  0.24630000  0.49260000  1
  C  C403  1  0.04280000  0.24605000  0.49210000  1
  C  C404  1  0.21230000  0.24630000  0.75370000  1
  C  C405  1  0.04280000  0.24605000  0.75395000  1
  C  C406  1  0.21230000  0.50740000  0.75370000  1
  C  C407  1  0.04280000  0.50790000  0.75395000  1
  C  C408  1  0.21230000  0.75370000  0.50740000  1
  C  C409  1  0.04280000  0.75395000  0.50790000  1
  C  C410  1  0.21230000  0.75370000  0.24630000  1
  C  C411  1  0.04280000  0.75395000  0.24605000  1
  C  C412  1  0.21230000  0.49260000  0.24630000  1
  C  C413  1  0.04280000  0.49210000  0.24605000  1
  C  C414  1  0.78770000  0.75370000  0.50740000  1
  C  C415  1  0.95720000  0.75395000  0.50790000  1
  C  C416  1  0.78770000  0.49260000  0.24630000  1
  C  C417  1  0.95720000  0.49210000  0.24605000  1
  C  C418  1  0.78770000  0.75370000  0.24630000  1
  C  C419  1  0.95720000  0.75395000  0.24605000  1
  C  C420  1  0.78770000  0.24630000  0.49260000  1
  C  C421  1  0.95720000  0.24605000  0.49210000  1
  C  C422  1  0.78770000  0.50740000  0.75370000  1
  C  C423  1  0.95720000  0.50790000  0.75395000  1
  C  C424  1  0.78770000  0.24630000  0.75370000  1
  C  C425  1  0.95720000  0.24605000  0.75395000  1
  C  C426  1  0.24130000  0.39140000  0.39140000  1
  C  C427  1  0.32120000  0.38100000  0.38100000  1
  C  C428  1  0.21830000  0.42420000  0.42420000  1
  C  C429  1  0.34210000  0.34070000  0.34070000  1
  C  C430  1  0.11470000  0.43290000  0.43290000  1
  C  C431  1  0.24130000  1.00000000  0.60860000  1
  C  C432  1  0.32120000  0.00000000  0.61900000  1
  C  C433  1  0.21830000  1.00000000  0.57580000  1
  C  C434  1  0.34210000  1.00000000  0.65930000  1
  C  C435  1  0.11470000  0.00000000  0.56710000  1
  C  C436  1  0.24130000  0.60860000  0.00000000  1
  C  C437  1  0.32120000  0.61900000  0.00000000  1
  C  C438  1  0.21830000  0.57580000  0.00000000  1
  C  C439  1  0.34210000  0.65930000  0.00000000  1
  C  C440  1  0.11470000  0.56710000  1.00000000  1
  C  C441  1  0.24130000  0.60860000  0.60860000  1
  C  C442  1  0.32120000  0.61900000  0.61900000  1
  C  C443  1  0.21830000  0.57580000  0.57580000  1
  C  C444  1  0.34210000  0.65930000  0.65930000  1
  C  C445  1  0.11470000  0.56710000  0.56710000  1
  C  C446  1  0.24130000  1.00000000  0.39140000  1
  C  C447  1  0.32120000  1.00000000  0.38100000  1
  C  C448  1  0.21830000  0.00000000  0.42420000  1
  C  C449  1  0.34210000  1.00000000  0.34070000  1
  C  C450  1  0.11470000  1.00000000  0.43290000  1
  C  C451  1  0.24130000  0.39140000  0.00000000  1
  C  C452  1  0.32120000  0.38100000  0.00000000  1
  C  C453  1  0.21830000  0.42420000  1.00000000  1
  C  C454  1  0.34210000  0.34070000  1.00000000  1
  C  C455  1  0.11470000  0.43290000  0.00000000  1
  C  C456  1  0.75870000  1.00000000  0.60860000  1
  C  C457  1  0.67880000  0.00000000  0.61900000  1
  C  C458  1  0.78170000  1.00000000  0.57580000  1
  C  C459  1  0.65790000  1.00000000  0.65930000  1
  C  C460  1  0.88530000  0.00000000  0.56710000  1
  C  C461  1  0.75870000  0.39140000  0.39140000  1
  C  C462  1  0.67880000  0.38100000  0.38100000  1
  C  C463  1  0.78170000  0.42420000  0.42420000  1
  C  C464  1  0.65790000  0.34070000  0.34070000  1
  C  C465  1  0.88530000  0.43290000  0.43290000  1
  C  C466  1  0.75870000  0.60860000  0.00000000  1
  C  C467  1  0.67880000  0.61900000  0.00000000  1
  C  C468  1  0.78170000  0.57580000  0.00000000  1
  C  C469  1  0.65790000  0.65930000  0.00000000  1
  C  C470  1  0.88530000  0.56710000  1.00000000  1
  C  C471  1  0.75870000  1.00000000  0.39140000  1
  C  C472  1  0.67880000  1.00000000  0.38100000  1
  C  C473  1  0.78170000  0.00000000  0.42420000  1
  C  C474  1  0.65790000  1.00000000  0.34070000  1
  C  C475  1  0.88530000  1.00000000  0.43290000  1
  C  C476  1  0.75870000  0.60860000  0.60860000  1
  C  C477  1  0.67880000  0.61900000  0.61900000  1
  C  C478  1  0.78170000  0.57580000  0.57580000  1
  C  C479  1  0.65790000  0.65930000  0.65930000  1
  C  C480  1  0.88530000  0.56710000  0.56710000  1
  C  C481  1  0.75870000  0.39140000  0.00000000  1
  C  C482  1  0.67880000  0.38100000  0.00000000  1
  C  C483  1  0.78170000  0.42420000  1.00000000  1
  C  C484  1  0.65790000  0.34070000  1.00000000  1
  C  C485  1  0.88530000  0.43290000  0.00000000  1
  O  O486  1  0.35110000  0.40849000  0.46709000  1
  O  O487  1  0.41960000  0.41423000  0.51868000  1
  O  O488  1  0.35110000  0.05860000  0.59151000  1
  O  O489  1  0.41960000  0.10445000  0.58577000  1
  O  O490  1  0.35110000  0.53291000  0.94140000  1
  O  O491  1  0.41960000  0.48132000  0.89555000  1
  O  O492  1  0.35110000  0.59151000  0.53291000  1
  O  O493  1  0.41960000  0.58577000  0.48132000  1
  O  O494  1  0.35110000  0.94140000  0.40849000  1
  O  O495  1  0.41960000  0.89555000  0.41423000  1
  O  O496  1  0.35110000  0.46709000  0.05860000  1
  O  O497  1  0.41960000  0.51868000  0.10445000  1
  O  O498  1  0.64890000  0.94140000  0.53291000  1
  O  O499  1  0.58040000  0.89555000  0.48132000  1
  O  O500  1  0.64890000  0.46709000  0.40849000  1
  O  O501  1  0.58040000  0.51868000  0.41423000  1
  O  O502  1  0.64890000  0.59151000  0.05860000  1
  O  O503  1  0.58040000  0.58577000  0.10445000  1
  O  O504  1  0.64890000  0.05860000  0.46709000  1
  O  O505  1  0.58040000  0.10445000  0.51868000  1
  O  O506  1  0.64890000  0.53291000  0.59151000  1
  O  O507  1  0.58040000  0.48132000  0.58577000  1
  O  O508  1  0.64890000  0.40849000  0.94140000  1
  O  O509  1  0.58040000  0.41423000  0.89555000  1
  O  O510  1  0.64890000  0.59151000  0.53291000  1
  O  O511  1  0.58040000  0.58577000  0.48132000  1
  O  O512  1  0.64890000  0.94140000  0.40849000  1
  O  O513  1  0.58040000  0.89555000  0.41423000  1
  O  O514  1  0.64890000  0.46709000  0.05860000  1
  O  O515  1  0.58040000  0.51868000  0.10445000  1
  O  O516  1  0.64890000  0.40849000  0.46709000  1
  O  O517  1  0.58040000  0.41423000  0.51868000  1
  O  O518  1  0.64890000  0.05860000  0.59151000  1
  O  O519  1  0.58040000  0.10445000  0.58577000  1
  O  O520  1  0.64890000  0.53291000  0.94140000  1
  O  O521  1  0.58040000  0.48132000  0.89555000  1
  O  O522  1  0.35110000  0.05860000  0.46709000  1
  O  O523  1  0.41960000  0.10445000  0.51868000  1
  O  O524  1  0.35110000  0.53291000  0.59151000  1
  O  O525  1  0.41960000  0.48132000  0.58577000  1
  O  O526  1  0.35110000  0.40849000  0.94140000  1
  O  O527  1  0.41960000  0.41423000  0.89555000  1
  O  O528  1  0.35110000  0.94140000  0.53291000  1
  O  O529  1  0.41960000  0.89555000  0.48132000  1
  O  O530  1  0.35110000  0.46709000  0.40849000  1
  O  O531  1  0.41960000  0.51868000  0.41423000  1
  O  O532  1  0.35110000  0.59151000  0.05860000  1
  O  O533  1  0.41960000  0.58577000  0.10445000  1
  O  O534  1  0.25970000  0.45150000  0.45150000  1
  O  O535  1  0.38510000  0.39917000  0.39917000  1
  O  O536  1  0.25970000  1.00000000  0.54850000  1
  O  O537  1  0.38510000  1.00000000  0.60083000  1
  O  O538  1  0.25970000  0.54850000  1.00000000  1
  O  O539  1  0.38510000  0.60083000  0.00000000  1
  O  O540  1  0.25970000  0.54850000  0.54850000  1
  O  O541  1  0.38510000  0.60083000  0.60083000  1
  O  O542  1  0.25970000  1.00000000  0.45150000  1
  O  O543  1  0.38510000  1.00000000  0.39917000  1
  O  O544  1  0.25970000  0.45150000  0.00000000  1
  O  O545  1  0.38510000  0.39917000  0.00000000  1
  O  O546  1  0.74030000  1.00000000  0.54850000  1
  O  O547  1  0.61490000  1.00000000  0.60083000  1
  O  O548  1  0.74030000  0.45150000  0.45150000  1
  O  O549  1  0.61490000  0.39917000  0.39917000  1
  O  O550  1  0.74030000  0.54850000  1.00000000  1
  O  O551  1  0.61490000  0.60083000  0.00000000  1
  O  O552  1  0.74030000  1.00000000  0.45150000  1
  O  O553  1  0.61490000  1.00000000  0.39917000  1
  O  O554  1  0.74030000  0.54850000  0.54850000  1
  O  O555  1  0.61490000  0.60083000  0.60083000  1
  O  O556  1  0.74030000  0.45150000  0.00000000  1
  O  O557  1  0.61490000  0.39917000  0.00000000  1
  O  O558  1  0.50000000  0.43690000  0.47100000  1
  O  O559  1  0.50000000  0.03410000  0.56310000  1
  O  O560  1  0.50000000  0.52900000  0.96590000  1
  O  O561  1  0.50000000  0.56310000  0.52900000  1
  O  O562  1  0.50000000  0.96590000  0.43690000  1
  O  O563  1  0.50000000  0.47100000  0.03410000  1
  O  O564  1  0.50000000  0.96590000  0.52900000  1
  O  O565  1  0.50000000  0.47100000  0.43690000  1
  O  O566  1  0.50000000  0.56310000  0.03410000  1
  O  O567  1  0.50000000  0.03410000  0.47100000  1
  O  O568  1  0.50000000  0.52900000  0.56310000  1
  O  O569  1  0.50000000  0.43690000  0.96590000  1
  O  O570  1  0.39070000  0.51695000  0.48305000  1
  O  O571  1  0.39070000  0.96610000  0.48305000  1
  O  O572  1  0.39070000  0.51695000  0.03390000  1
  O  O573  1  0.39070000  0.48305000  0.51695000  1
  O  O574  1  0.39070000  0.03390000  0.51695000  1
  O  O575  1  0.39070000  0.48305000  0.96610000  1
  O  O576  1  0.60930000  0.03390000  0.51695000  1
  O  O577  1  0.60930000  0.48305000  0.51695000  1
  O  O578  1  0.60930000  0.48305000  0.96610000  1
  O  O579  1  0.60930000  0.96610000  0.48305000  1
  O  O580  1  0.60930000  0.51695000  0.48305000  1
  O  O581  1  0.60930000  0.51695000  0.03390000  1
  F  F582  1  0.09190000  0.43120000  0.39750000  1
  F  F583  1  0.38420000  0.31810000  0.35220000  1
  F  F584  1  0.09190000  0.96630000  0.56880000  1
  F  F585  1  0.29930000  0.03540000  0.68770000  1
  F  F586  1  0.10880000  0.57260000  0.03650000  1
  F  F587  1  0.38420000  0.64780000  0.96590000  1
  F  F588  1  0.10880000  0.53610000  0.57260000  1
  F  F589  1  0.38420000  0.68190000  0.64780000  1
  F  F590  1  0.10880000  0.03650000  0.46390000  1
  F  F591  1  0.38420000  0.96590000  0.31810000  1
  F  F592  1  0.10880000  0.42740000  0.96350000  1
  F  F593  1  0.29930000  0.34770000  0.03540000  1
  F  F594  1  0.89120000  0.03650000  0.57260000  1
  F  F595  1  0.70070000  0.96460000  0.65230000  1
  F  F596  1  0.89120000  0.42740000  0.46390000  1
  F  F597  1  0.61580000  0.35220000  0.31810000  1
  F  F598  1  0.90810000  0.56880000  0.96630000  1
  F  F599  1  0.61580000  0.68190000  0.03410000  1
  F  F600  1  0.89120000  0.96350000  0.42740000  1
  F  F601  1  0.61580000  0.03410000  0.35220000  1
  F  F602  1  0.90810000  0.60250000  0.56880000  1
  F  F603  1  0.70070000  0.65230000  0.68770000  1
  F  F604  1  0.90810000  0.43120000  0.03370000  1
  F  F605  1  0.70070000  0.31230000  0.96460000  1
  F  F606  1  0.90810000  0.56880000  0.60250000  1
  F  F607  1  0.70070000  0.68770000  0.65230000  1
  F  F608  1  0.89120000  0.03650000  0.46390000  1
  F  F609  1  0.61580000  0.96590000  0.31810000  1
  F  F610  1  0.90810000  0.39750000  0.96630000  1
  F  F611  1  0.70070000  0.34770000  0.03540000  1
  F  F612  1  0.89120000  0.46390000  0.42740000  1
  F  F613  1  0.61580000  0.31810000  0.35220000  1
  F  F614  1  0.89120000  0.96350000  0.53610000  1
  F  F615  1  0.70070000  0.03540000  0.68770000  1
  F  F616  1  0.90810000  0.60250000  0.03370000  1
  F  F617  1  0.61580000  0.64780000  0.96590000  1
  F  F618  1  0.10880000  0.96350000  0.42740000  1
  F  F619  1  0.38420000  0.03410000  0.35220000  1
  F  F620  1  0.10880000  0.57260000  0.53610000  1
  F  F621  1  0.38420000  0.64780000  0.68190000  1
  F  F622  1  0.10880000  0.46390000  0.03650000  1
  F  F623  1  0.29930000  0.31230000  0.96460000  1
  F  F624  1  0.09190000  0.03370000  0.60250000  1
  F  F625  1  0.29930000  0.96460000  0.65230000  1
  F  F626  1  0.09190000  0.39750000  0.43120000  1
  F  F627  1  0.38420000  0.35220000  0.31810000  1
  F  F628  1  0.10880000  0.53610000  0.96350000  1
  F  F629  1  0.38420000  0.68190000  0.03410000  1
  F  F630  1  0.27880000  0.32320000  0.32320000  1
  F  F631  1  0.10300000  0.46430000  0.46430000  1
  F  F632  1  0.41440000  1.00000000  0.66620000  1
  F  F633  1  0.10300000  1.00000000  0.53570000  1
  F  F634  1  0.27880000  0.67680000  0.00000000  1
  F  F635  1  0.07930000  0.59450000  0.00000000  1
  F  F636  1  0.27880000  0.67680000  0.67680000  1
  F  F637  1  0.07930000  0.59450000  0.59450000  1
  F  F638  1  0.27880000  1.00000000  0.32320000  1
  F  F639  1  0.07930000  1.00000000  0.40550000  1
  F  F640  1  0.41440000  0.33380000  0.00000000  1
  F  F641  1  0.07930000  0.40550000  1.00000000  1
  F  F642  1  0.58560000  1.00000000  0.66620000  1
  F  F643  1  0.92070000  1.00000000  0.59450000  1
  F  F644  1  0.72120000  0.32320000  0.32320000  1
  F  F645  1  0.92070000  0.40550000  0.40550000  1
  F  F646  1  0.72120000  0.67680000  0.00000000  1
  F  F647  1  0.89700000  0.53570000  1.00000000  1
  F  F648  1  0.72120000  1.00000000  0.32320000  1
  F  F649  1  0.92070000  1.00000000  0.40550000  1
  F  F650  1  0.58560000  0.66620000  0.66620000  1
  F  F651  1  0.89700000  0.53570000  0.53570000  1
  F  F652  1  0.58560000  0.33380000  0.00000000  1
  F  F653  1  0.89700000  0.46430000  0.00000000  1
