# generated using pymatgen
data_Zr3H5(CO)14
_symmetry_space_group_name_H-M   'P 1'
_cell_length_a   15.81080000
_cell_length_b   25.13720000
_cell_length_c   28.19900000
_cell_angle_alpha   90.00000000
_cell_angle_beta   90.00000000
_cell_angle_gamma   90.00000000
_symmetry_Int_Tables_number   1
_chemical_formula_structural   Zr3H5(CO)14
_chemical_formula_sum   'Zr24 H40 C112 O112'
_cell_volume   11207.38917839
_cell_formula_units_Z   8
loop_
 _symmetry_equiv_pos_site_id
 _symmetry_equiv_pos_as_xyz
  1  'x, y, z'
loop_
 _atom_site_type_symbol
 _atom_site_label
 _atom_site_symmetry_multiplicity
 _atom_site_fract_x
 _atom_site_fract_y
 _atom_site_fract_z
 _atom_site_occupancy
  Zr  Zr0  1  0.35368000  0.72415000  0.81259000  1
  Zr  Zr1  1  0.85368000  0.22415000  0.31259000  1
  Zr  Zr2  1  0.35368000  0.27585000  0.68741000  1
  Zr  Zr3  1  0.85368000  0.77585000  0.18741000  1
  Zr  Zr4  1  0.64632000  0.27585000  0.31259000  1
  Zr  Zr5  1  0.14632000  0.77585000  0.81259000  1
  Zr  Zr6  1  0.64632000  0.72415000  0.18741000  1
  Zr  Zr7  1  0.14632000  0.22415000  0.68741000  1
  Zr  Zr8  1  0.64632000  0.27585000  0.18741000  1
  Zr  Zr9  1  0.14632000  0.77585000  0.68741000  1
  Zr  Zr10  1  0.64632000  0.72415000  0.31259000  1
  Zr  Zr11  1  0.14632000  0.22415000  0.81259000  1
  Zr  Zr12  1  0.35368000  0.72415000  0.68741000  1
  Zr  Zr13  1  0.85368000  0.22415000  0.18741000  1
  Zr  Zr14  1  0.35368000  0.27585000  0.81259000  1
  Zr  Zr15  1  0.85368000  0.77585000  0.31259000  1
  Zr  Zr16  1  0.19482000  0.65828000  0.75000000  1
  Zr  Zr17  1  0.69482000  0.15828000  0.25000000  1
  Zr  Zr18  1  0.19482000  0.34172000  0.75000000  1
  Zr  Zr19  1  0.69482000  0.84172000  0.25000000  1
  Zr  Zr20  1  0.80518000  0.34172000  0.25000000  1
  Zr  Zr21  1  0.30518000  0.84172000  0.75000000  1
  Zr  Zr22  1  0.80518000  0.65828000  0.25000000  1
  Zr  Zr23  1  0.30518000  0.15828000  0.75000000  1
  H  H24  1  0.40040000  0.58030000  0.59510000  1
  H  H25  1  0.39780000  0.56390000  0.51480000  1
  H  H26  1  0.90040000  0.08030000  0.09510000  1
  H  H27  1  0.89780000  0.06390000  0.01480000  1
  H  H28  1  0.40040000  0.41970000  0.90490000  1
  H  H29  1  0.52210000  0.43380000  0.94330000  1
  H  H30  1  0.90040000  0.91970000  0.40490000  1
  H  H31  1  0.89780000  0.93610000  0.48520000  1
  H  H32  1  0.59960000  0.41970000  0.09510000  1
  H  H33  1  0.60220000  0.43610000  0.01480000  1
  H  H34  1  0.09960000  0.91970000  0.59510000  1
  H  H35  1  0.97790000  0.93380000  0.55670000  1
  H  H36  1  0.59960000  0.58030000  0.40490000  1
  H  H37  1  0.47790000  0.56620000  0.44330000  1
  H  H38  1  0.09960000  0.08030000  0.90490000  1
  H  H39  1  0.97790000  0.06620000  0.94330000  1
  H  H40  1  0.59960000  0.41970000  0.40490000  1
  H  H41  1  0.60220000  0.43610000  0.48520000  1
  H  H42  1  0.09960000  0.91970000  0.90490000  1
  H  H43  1  0.10220000  0.93610000  0.98520000  1
  H  H44  1  0.59960000  0.58030000  0.09510000  1
  H  H45  1  0.47790000  0.56620000  0.05670000  1
  H  H46  1  0.09960000  0.08030000  0.59510000  1
  H  H47  1  0.10220000  0.06390000  0.51480000  1
  H  H48  1  0.40040000  0.58030000  0.90490000  1
  H  H49  1  0.39780000  0.56390000  0.98520000  1
  H  H50  1  0.90040000  0.08030000  0.40490000  1
  H  H51  1  0.02210000  0.06620000  0.44330000  1
  H  H52  1  0.40040000  0.41970000  0.59510000  1
  H  H53  1  0.52210000  0.43380000  0.55670000  1
  H  H54  1  0.90040000  0.91970000  0.09510000  1
  H  H55  1  0.02210000  0.93380000  0.05670000  1
  H  H56  1  0.27090000  0.50000000  0.69800000  1
  H  H57  1  0.77090000  0.00000000  0.19800000  1
  H  H58  1  0.27090000  0.50000000  0.80200000  1
  H  H59  1  0.77090000  0.00000000  0.30200000  1
  H  H60  1  0.72910000  0.50000000  0.19800000  1
  H  H61  1  0.22910000  0.00000000  0.69800000  1
  H  H62  1  0.72910000  0.50000000  0.30200000  1
  H  H63  1  0.22910000  0.00000000  0.80200000  1
  C  C64  1  0.38330000  0.54760000  0.60896000  1
  C  C65  1  0.04720000  0.66300000  0.67100000  1
  C  C66  1  0.33460000  0.54767000  0.65051000  1
  C  C67  1  0.31060000  0.59881000  0.67328000  1
  C  C68  1  0.43990000  0.53770000  0.50920000  1
  C  C69  1  0.88330000  0.04760000  0.10896000  1
  C  C70  1  0.54720000  0.16300000  0.17100000  1
  C  C71  1  0.83460000  0.04767000  0.15051000  1
  C  C72  1  0.81060000  0.09881000  0.17328000  1
  C  C73  1  0.93990000  0.03770000  0.00920000  1
  C  C74  1  0.38330000  0.45240000  0.89104000  1
  C  C75  1  0.04720000  0.33700000  0.82900000  1
  C  C76  1  0.33460000  0.45233000  0.84949000  1
  C  C77  1  0.31060000  0.40119000  0.82672000  1
  C  C78  1  0.51290000  0.46110000  0.96600000  1
  C  C79  1  0.88330000  0.95240000  0.39104000  1
  C  C80  1  0.54720000  0.83700000  0.32900000  1
  C  C81  1  0.83460000  0.95233000  0.34949000  1
  C  C82  1  0.81060000  0.90119000  0.32672000  1
  C  C83  1  0.93990000  0.96230000  0.49080000  1
  C  C84  1  0.61670000  0.45240000  0.10896000  1
  C  C85  1  0.95280000  0.33700000  0.17100000  1
  C  C86  1  0.66540000  0.45233000  0.15051000  1
  C  C87  1  0.68940000  0.40119000  0.17328000  1
  C  C88  1  0.56010000  0.46230000  0.00920000  1
  C  C89  1  0.11670000  0.95240000  0.60896000  1
  C  C90  1  0.45280000  0.83700000  0.67100000  1
  C  C91  1  0.16540000  0.95233000  0.65051000  1
  C  C92  1  0.18940000  0.90119000  0.67328000  1
  C  C93  1  0.98710000  0.96110000  0.53400000  1
  C  C94  1  0.61670000  0.54760000  0.39104000  1
  C  C95  1  0.95280000  0.66300000  0.32900000  1
  C  C96  1  0.66540000  0.54767000  0.34949000  1
  C  C97  1  0.68940000  0.59881000  0.32672000  1
  C  C98  1  0.48710000  0.53890000  0.46600000  1
  C  C99  1  0.11670000  0.04760000  0.89104000  1
  C  C100  1  0.45280000  0.16300000  0.82900000  1
  C  C101  1  0.16540000  0.04767000  0.84949000  1
  C  C102  1  0.18940000  0.09881000  0.82672000  1
  C  C103  1  0.98710000  0.03890000  0.96600000  1
  C  C104  1  0.61670000  0.45240000  0.39104000  1
  C  C105  1  0.95280000  0.33700000  0.32900000  1
  C  C106  1  0.66540000  0.45233000  0.34949000  1
  C  C107  1  0.68940000  0.40119000  0.32672000  1
  C  C108  1  0.56010000  0.46230000  0.49080000  1
  C  C109  1  0.11670000  0.95240000  0.89104000  1
  C  C110  1  0.45280000  0.83700000  0.82900000  1
  C  C111  1  0.16540000  0.95233000  0.84949000  1
  C  C112  1  0.18940000  0.90119000  0.82672000  1
  C  C113  1  0.06010000  0.96230000  0.99080000  1
  C  C114  1  0.61670000  0.54760000  0.10896000  1
  C  C115  1  0.95280000  0.66300000  0.17100000  1
  C  C116  1  0.66540000  0.54767000  0.15051000  1
  C  C117  1  0.68940000  0.59881000  0.17328000  1
  C  C118  1  0.48710000  0.53890000  0.03400000  1
  C  C119  1  0.11670000  0.04760000  0.60896000  1
  C  C120  1  0.45280000  0.16300000  0.67100000  1
  C  C121  1  0.16540000  0.04767000  0.65051000  1
  C  C122  1  0.18940000  0.09881000  0.67328000  1
  C  C123  1  0.06010000  0.03770000  0.50920000  1
  C  C124  1  0.38330000  0.54760000  0.89104000  1
  C  C125  1  0.04720000  0.66300000  0.82900000  1
  C  C126  1  0.33460000  0.54767000  0.84949000  1
  C  C127  1  0.31060000  0.59881000  0.82672000  1
  C  C128  1  0.43990000  0.53770000  0.99080000  1
  C  C129  1  0.88330000  0.04760000  0.39104000  1
  C  C130  1  0.54720000  0.16300000  0.32900000  1
  C  C131  1  0.83460000  0.04767000  0.34949000  1
  C  C132  1  0.81060000  0.09881000  0.32672000  1
  C  C133  1  0.01290000  0.03890000  0.46600000  1
  C  C134  1  0.38330000  0.45240000  0.60896000  1
  C  C135  1  0.04720000  0.33700000  0.67100000  1
  C  C136  1  0.33460000  0.45233000  0.65051000  1
  C  C137  1  0.31060000  0.40119000  0.67328000  1
  C  C138  1  0.51290000  0.46110000  0.53400000  1
  C  C139  1  0.88330000  0.95240000  0.10896000  1
  C  C140  1  0.54720000  0.83700000  0.17100000  1
  C  C141  1  0.83460000  0.95233000  0.15051000  1
  C  C142  1  0.81060000  0.90119000  0.17328000  1
  C  C143  1  0.01290000  0.96110000  0.03400000  1
  C  C144  1  0.50500000  0.67870000  0.75000000  1
  C  C145  1  0.00500000  0.17870000  0.25000000  1
  C  C146  1  0.50500000  0.32130000  0.75000000  1
  C  C147  1  0.00500000  0.82130000  0.25000000  1
  C  C148  1  0.49500000  0.32130000  0.25000000  1
  C  C149  1  0.99500000  0.82130000  0.75000000  1
  C  C150  1  0.49500000  0.67870000  0.25000000  1
  C  C151  1  0.99500000  0.17870000  0.75000000  1
  C  C152  1  0.40630000  0.50000000  0.58820000  1
  C  C153  1  0.45420000  0.50000000  0.54200000  1
  C  C154  1  0.30700000  0.50000000  0.67106000  1
  C  C155  1  0.90630000  0.00000000  0.08820000  1
  C  C156  1  0.95420000  0.00000000  0.04200000  1
  C  C157  1  0.80700000  0.00000000  0.17106000  1
  C  C158  1  0.40630000  0.50000000  0.91180000  1
  C  C159  1  0.45420000  0.50000000  0.95800000  1
  C  C160  1  0.30700000  0.50000000  0.82894000  1
  C  C161  1  0.90630000  0.00000000  0.41180000  1
  C  C162  1  0.95420000  0.00000000  0.45800000  1
  C  C163  1  0.80700000  0.00000000  0.32894000  1
  C  C164  1  0.59370000  0.50000000  0.08820000  1
  C  C165  1  0.54580000  0.50000000  0.04200000  1
  C  C166  1  0.69300000  0.50000000  0.17106000  1
  C  C167  1  0.09370000  0.00000000  0.58820000  1
  C  C168  1  0.04580000  0.00000000  0.54200000  1
  C  C169  1  0.19300000  0.00000000  0.67106000  1
  C  C170  1  0.59370000  0.50000000  0.41180000  1
  C  C171  1  0.54580000  0.50000000  0.45800000  1
  C  C172  1  0.69300000  0.50000000  0.32894000  1
  C  C173  1  0.09370000  0.00000000  0.91180000  1
  C  C174  1  0.04580000  0.00000000  0.95800000  1
  C  C175  1  0.19300000  0.00000000  0.82894000  1
  O  O176  1  0.24999000  0.59813000  0.70286000  1
  O  O177  1  0.35140000  0.64016000  0.66129000  1
  O  O178  1  0.05110000  0.71780000  0.65934000  1
  O  O179  1  0.22210000  0.70539000  0.81203000  1
  O  O180  1  0.09180000  0.62953000  0.70354000  1
  O  O181  1  0.48300000  0.69303000  0.80344000  1
  O  O182  1  0.74999000  0.09813000  0.20286000  1
  O  O183  1  0.85140000  0.14016000  0.16129000  1
  O  O184  1  0.55110000  0.21780000  0.15934000  1
  O  O185  1  0.72210000  0.20539000  0.31203000  1
  O  O186  1  0.59180000  0.12953000  0.20354000  1
  O  O187  1  0.98300000  0.19303000  0.30344000  1
  O  O188  1  0.24999000  0.40187000  0.79714000  1
  O  O189  1  0.35140000  0.35984000  0.83871000  1
  O  O190  1  0.05110000  0.28220000  0.84066000  1
  O  O191  1  0.22210000  0.29461000  0.68797000  1
  O  O192  1  0.09180000  0.37047000  0.79646000  1
  O  O193  1  0.48300000  0.30697000  0.69656000  1
  O  O194  1  0.74999000  0.90187000  0.29714000  1
  O  O195  1  0.85140000  0.85984000  0.33871000  1
  O  O196  1  0.55110000  0.78220000  0.34066000  1
  O  O197  1  0.72210000  0.79461000  0.18797000  1
  O  O198  1  0.59180000  0.87047000  0.29646000  1
  O  O199  1  0.98300000  0.80697000  0.19656000  1
  O  O200  1  0.75001000  0.40187000  0.20286000  1
  O  O201  1  0.64860000  0.35984000  0.16129000  1
  O  O202  1  0.94890000  0.28220000  0.15934000  1
  O  O203  1  0.77790000  0.29461000  0.31203000  1
  O  O204  1  0.90820000  0.37047000  0.20354000  1
  O  O205  1  0.51700000  0.30697000  0.30344000  1
  O  O206  1  0.25001000  0.90187000  0.70286000  1
  O  O207  1  0.14860000  0.85984000  0.66129000  1
  O  O208  1  0.44890000  0.78220000  0.65934000  1
  O  O209  1  0.27790000  0.79461000  0.81203000  1
  O  O210  1  0.40820000  0.87047000  0.70354000  1
  O  O211  1  0.01700000  0.80697000  0.80344000  1
  O  O212  1  0.75001000  0.59813000  0.29714000  1
  O  O213  1  0.64860000  0.64016000  0.33871000  1
  O  O214  1  0.94890000  0.71780000  0.34066000  1
  O  O215  1  0.77790000  0.70539000  0.18797000  1
  O  O216  1  0.90820000  0.62953000  0.29646000  1
  O  O217  1  0.51700000  0.69303000  0.19656000  1
  O  O218  1  0.25001000  0.09813000  0.79714000  1
  O  O219  1  0.14860000  0.14016000  0.83871000  1
  O  O220  1  0.44890000  0.21780000  0.84066000  1
  O  O221  1  0.27790000  0.20539000  0.68797000  1
  O  O222  1  0.40820000  0.12953000  0.79646000  1
  O  O223  1  0.01700000  0.19303000  0.69656000  1
  O  O224  1  0.75001000  0.40187000  0.29714000  1
  O  O225  1  0.64860000  0.35984000  0.33871000  1
  O  O226  1  0.94890000  0.28220000  0.34066000  1
  O  O227  1  0.77790000  0.29461000  0.18797000  1
  O  O228  1  0.90820000  0.37047000  0.29646000  1
  O  O229  1  0.51700000  0.30697000  0.19656000  1
  O  O230  1  0.25001000  0.90187000  0.79714000  1
  O  O231  1  0.14860000  0.85984000  0.83871000  1
  O  O232  1  0.44890000  0.78220000  0.84066000  1
  O  O233  1  0.27790000  0.79461000  0.68797000  1
  O  O234  1  0.40820000  0.87047000  0.79646000  1
  O  O235  1  0.01700000  0.80697000  0.69656000  1
  O  O236  1  0.75001000  0.59813000  0.20286000  1
  O  O237  1  0.64860000  0.64016000  0.16129000  1
  O  O238  1  0.94890000  0.71780000  0.15934000  1
  O  O239  1  0.77790000  0.70539000  0.31203000  1
  O  O240  1  0.90820000  0.62953000  0.20354000  1
  O  O241  1  0.51700000  0.69303000  0.30344000  1
  O  O242  1  0.25001000  0.09813000  0.70286000  1
  O  O243  1  0.14860000  0.14016000  0.66129000  1
  O  O244  1  0.44890000  0.21780000  0.65934000  1
  O  O245  1  0.27790000  0.20539000  0.81203000  1
  O  O246  1  0.40820000  0.12953000  0.70354000  1
  O  O247  1  0.01700000  0.19303000  0.80344000  1
  O  O248  1  0.24999000  0.59813000  0.79714000  1
  O  O249  1  0.35140000  0.64016000  0.83871000  1
  O  O250  1  0.05110000  0.71780000  0.84066000  1
  O  O251  1  0.22210000  0.70539000  0.68797000  1
  O  O252  1  0.09180000  0.62953000  0.79646000  1
  O  O253  1  0.48300000  0.69303000  0.69656000  1
  O  O254  1  0.74999000  0.09813000  0.29714000  1
  O  O255  1  0.85140000  0.14016000  0.33871000  1
  O  O256  1  0.55110000  0.21780000  0.34066000  1
  O  O257  1  0.72210000  0.20539000  0.18797000  1
  O  O258  1  0.59180000  0.12953000  0.29646000  1
  O  O259  1  0.98300000  0.19303000  0.19656000  1
  O  O260  1  0.24999000  0.40187000  0.70286000  1
  O  O261  1  0.35140000  0.35984000  0.66129000  1
  O  O262  1  0.05110000  0.28220000  0.65934000  1
  O  O263  1  0.22210000  0.29461000  0.81203000  1
  O  O264  1  0.09180000  0.37047000  0.70354000  1
  O  O265  1  0.48300000  0.30697000  0.80344000  1
  O  O266  1  0.74999000  0.90187000  0.20286000  1
  O  O267  1  0.85140000  0.85984000  0.16129000  1
  O  O268  1  0.55110000  0.78220000  0.15934000  1
  O  O269  1  0.72210000  0.79461000  0.31203000  1
  O  O270  1  0.59180000  0.87047000  0.20354000  1
  O  O271  1  0.98300000  0.80697000  0.30344000  1
  O  O272  1  0.11730000  0.72888000  0.75000000  1
  O  O273  1  0.32660000  0.67950000  0.75000000  1
  O  O274  1  0.61730000  0.22888000  0.25000000  1
  O  O275  1  0.82660000  0.17950000  0.25000000  1
  O  O276  1  0.11730000  0.27112000  0.75000000  1
  O  O277  1  0.32660000  0.32050000  0.75000000  1
  O  O278  1  0.61730000  0.77112000  0.25000000  1
  O  O279  1  0.82660000  0.82050000  0.25000000  1
  O  O280  1  0.88270000  0.27112000  0.25000000  1
  O  O281  1  0.67340000  0.32050000  0.25000000  1
  O  O282  1  0.38270000  0.77112000  0.75000000  1
  O  O283  1  0.17340000  0.82050000  0.75000000  1
  O  O284  1  0.88270000  0.72888000  0.25000000  1
  O  O285  1  0.67340000  0.67950000  0.25000000  1
  O  O286  1  0.38270000  0.22888000  0.75000000  1
  O  O287  1  0.17340000  0.17950000  0.75000000  1
