# generated using pymatgen
data_Zr3H5C13O12
_symmetry_space_group_name_H-M   'P 1'
_cell_length_a   16.77900000
_cell_length_b   25.23800000
_cell_length_c   26.86700000
_cell_angle_alpha   90.00000000
_cell_angle_beta   90.00000000
_cell_angle_gamma   90.00000000
_symmetry_Int_Tables_number   1
_chemical_formula_structural   Zr3H5C13O12
_chemical_formula_sum   'Zr24 H40 C104 O96'
_cell_volume   11377.32555653
_cell_formula_units_Z   8
loop_
 _symmetry_equiv_pos_site_id
 _symmetry_equiv_pos_as_xyz
  1  'x, y, z'
loop_
 _atom_site_type_symbol
 _atom_site_label
 _atom_site_symmetry_multiplicity
 _atom_site_fract_x
 _atom_site_fract_y
 _atom_site_fract_z
 _atom_site_occupancy
  Zr  Zr0  1  0.65318000  0.22345000  0.18462000  1
  Zr  Zr1  1  0.15318000  0.72345000  0.68462000  1
  Zr  Zr2  1  0.65318000  0.77655000  0.31538000  1
  Zr  Zr3  1  0.15318000  0.27655000  0.81538000  1
  Zr  Zr4  1  0.34682000  0.77655000  0.68462000  1
  Zr  Zr5  1  0.84682000  0.27655000  0.18462000  1
  Zr  Zr6  1  0.34682000  0.22345000  0.81538000  1
  Zr  Zr7  1  0.84682000  0.72345000  0.31538000  1
  Zr  Zr8  1  0.34682000  0.77655000  0.81538000  1
  Zr  Zr9  1  0.84682000  0.27655000  0.31538000  1
  Zr  Zr10  1  0.34682000  0.22345000  0.68462000  1
  Zr  Zr11  1  0.84682000  0.72345000  0.18462000  1
  Zr  Zr12  1  0.65318000  0.22345000  0.31538000  1
  Zr  Zr13  1  0.15318000  0.72345000  0.81538000  1
  Zr  Zr14  1  0.65318000  0.77655000  0.18462000  1
  Zr  Zr15  1  0.15318000  0.27655000  0.68462000  1
  Zr  Zr16  1  0.69512000  0.33986000  0.25000000  1
  Zr  Zr17  1  0.19512000  0.83986000  0.75000000  1
  Zr  Zr18  1  0.69512000  0.66014000  0.25000000  1
  Zr  Zr19  1  0.19512000  0.16014000  0.75000000  1
  Zr  Zr20  1  0.30488000  0.66014000  0.75000000  1
  Zr  Zr21  1  0.80488000  0.16014000  0.25000000  1
  Zr  Zr22  1  0.30488000  0.33986000  0.75000000  1
  Zr  Zr23  1  0.80488000  0.83986000  0.25000000  1
  H  H24  1  0.89090000  0.41970000  0.40620000  1
  H  H25  1  0.39090000  0.91970000  0.90620000  1
  H  H26  1  0.89090000  0.58030000  0.09380000  1
  H  H27  1  0.39090000  0.08030000  0.59380000  1
  H  H28  1  0.10910000  0.58030000  0.90620000  1
  H  H29  1  0.60910000  0.08030000  0.40620000  1
  H  H30  1  0.10910000  0.41970000  0.59380000  1
  H  H31  1  0.60910000  0.91970000  0.09380000  1
  H  H32  1  0.10910000  0.58030000  0.59380000  1
  H  H33  1  0.60910000  0.08030000  0.09380000  1
  H  H34  1  0.10910000  0.41970000  0.90620000  1
  H  H35  1  0.60910000  0.91970000  0.40620000  1
  H  H36  1  0.89090000  0.41970000  0.09380000  1
  H  H37  1  0.39090000  0.91970000  0.59380000  1
  H  H38  1  0.89090000  0.58030000  0.40620000  1
  H  H39  1  0.39090000  0.08030000  0.90620000  1
  H  H40  1  0.75760000  0.50000000  0.30410000  1
  H  H41  1  0.25760000  0.00000000  0.80410000  1
  H  H42  1  0.75760000  0.50000000  0.19590000  1
  H  H43  1  0.25760000  0.00000000  0.69590000  1
  H  H44  1  0.24240000  0.50000000  0.80410000  1
  H  H45  1  0.74240000  0.00000000  0.30410000  1
  H  H46  1  0.24240000  0.50000000  0.69590000  1
  H  H47  1  0.74240000  0.00000000  0.19590000  1
  H  H48  1  0.42730000  0.92120000  0.98155000  1
  H  H49  1  0.52888000  0.06271000  0.92702000  1
  H  H50  1  0.47112000  0.93729000  0.07298000  1
  H  H51  1  0.57270000  0.07880000  0.01845000  1
  H  H52  1  0.52888000  0.93729000  0.57298000  1
  H  H53  1  0.57270000  0.92120000  0.48155000  1
  H  H54  1  0.47112000  0.06271000  0.42702000  1
  H  H55  1  0.42730000  0.07880000  0.51845000  1
  H  H56  1  0.92730000  0.57880000  0.48155000  1
  H  H57  1  0.97112000  0.56271000  0.57298000  1
  H  H58  1  0.07270000  0.42120000  0.51845000  1
  H  H59  1  0.02888000  0.43729000  0.42702000  1
  H  H60  1  0.97112000  0.56271000  0.92702000  1
  H  H61  1  0.92730000  0.57880000  0.01845000  1
  H  H62  1  0.07270000  0.42120000  0.98155000  1
  H  H63  1  0.02888000  0.43729000  0.07298000  1
  C  C64  1  0.80060000  0.40100000  0.32830000  1
  C  C65  1  0.82210000  0.45280000  0.35210000  1
  C  C66  1  0.87350000  0.45250000  0.39260000  1
  C  C67  1  0.55750000  0.33550000  0.17100000  1
  C  C68  1  0.95500000  0.53880000  0.49100000  1
  C  C69  1  0.30060000  0.90100000  0.82830000  1
  C  C70  1  0.32210000  0.95280000  0.85210000  1
  C  C71  1  0.37350000  0.95250000  0.89260000  1
  C  C72  1  0.05750000  0.83550000  0.67100000  1
  C  C73  1  0.51300000  0.03780000  0.96100000  1
  C  C74  1  0.80060000  0.59900000  0.17170000  1
  C  C75  1  0.82210000  0.54720000  0.14790000  1
  C  C76  1  0.87350000  0.54750000  0.10740000  1
  C  C77  1  0.55750000  0.66450000  0.32900000  1
  C  C78  1  0.01300000  0.46220000  0.03900000  1
  C  C79  1  0.30060000  0.09900000  0.67170000  1
  C  C80  1  0.32210000  0.04720000  0.64790000  1
  C  C81  1  0.37350000  0.04750000  0.60740000  1
  C  C82  1  0.05750000  0.16450000  0.82900000  1
  C  C83  1  0.51300000  0.96220000  0.53900000  1
  C  C84  1  0.19940000  0.59900000  0.82830000  1
  C  C85  1  0.17790000  0.54720000  0.85210000  1
  C  C86  1  0.12650000  0.54750000  0.89260000  1
  C  C87  1  0.44250000  0.66450000  0.67100000  1
  C  C88  1  0.04500000  0.46120000  0.99100000  1
  C  C89  1  0.69940000  0.09900000  0.32830000  1
  C  C90  1  0.67790000  0.04720000  0.35210000  1
  C  C91  1  0.62650000  0.04750000  0.39260000  1
  C  C92  1  0.94250000  0.16450000  0.17100000  1
  C  C93  1  0.54500000  0.96120000  0.49100000  1
  C  C94  1  0.19940000  0.40100000  0.67170000  1
  C  C95  1  0.17790000  0.45280000  0.64790000  1
  C  C96  1  0.12650000  0.45250000  0.60740000  1
  C  C97  1  0.44250000  0.33550000  0.82900000  1
  C  C98  1  0.98700000  0.53780000  0.53900000  1
  C  C99  1  0.69940000  0.90100000  0.17170000  1
  C  C100  1  0.67790000  0.95280000  0.14790000  1
  C  C101  1  0.62650000  0.95250000  0.10740000  1
  C  C102  1  0.94250000  0.83550000  0.32900000  1
  C  C103  1  0.54500000  0.03880000  0.00900000  1
  C  C104  1  0.19940000  0.59900000  0.67170000  1
  C  C105  1  0.17790000  0.54720000  0.64790000  1
  C  C106  1  0.12650000  0.54750000  0.60740000  1
  C  C107  1  0.44250000  0.66450000  0.82900000  1
  C  C108  1  0.04500000  0.46120000  0.50900000  1
  C  C109  1  0.69940000  0.09900000  0.17170000  1
  C  C110  1  0.67790000  0.04720000  0.14790000  1
  C  C111  1  0.62650000  0.04750000  0.10740000  1
  C  C112  1  0.94250000  0.16450000  0.32900000  1
  C  C113  1  0.48700000  0.96220000  0.03900000  1
  C  C114  1  0.19940000  0.40100000  0.82830000  1
  C  C115  1  0.17790000  0.45280000  0.85210000  1
  C  C116  1  0.12650000  0.45250000  0.89260000  1
  C  C117  1  0.44250000  0.33550000  0.67100000  1
  C  C118  1  0.98700000  0.53780000  0.96100000  1
  C  C119  1  0.69940000  0.90100000  0.32830000  1
  C  C120  1  0.67790000  0.95280000  0.35210000  1
  C  C121  1  0.62650000  0.95250000  0.39260000  1
  C  C122  1  0.94250000  0.83550000  0.17100000  1
  C  C123  1  0.48700000  0.03780000  0.46100000  1
  C  C124  1  0.80060000  0.40100000  0.17170000  1
  C  C125  1  0.82210000  0.45280000  0.14790000  1
  C  C126  1  0.87350000  0.45250000  0.10740000  1
  C  C127  1  0.55750000  0.33550000  0.32900000  1
  C  C128  1  0.95500000  0.53880000  0.00900000  1
  C  C129  1  0.30060000  0.90100000  0.67170000  1
  C  C130  1  0.32210000  0.95280000  0.64790000  1
  C  C131  1  0.37350000  0.95250000  0.60740000  1
  C  C132  1  0.05750000  0.83550000  0.82900000  1
  C  C133  1  0.45500000  0.03880000  0.50900000  1
  C  C134  1  0.80060000  0.59900000  0.32830000  1
  C  C135  1  0.82210000  0.54720000  0.35210000  1
  C  C136  1  0.87350000  0.54750000  0.39260000  1
  C  C137  1  0.55750000  0.66450000  0.17100000  1
  C  C138  1  0.01300000  0.46220000  0.46100000  1
  C  C139  1  0.30060000  0.09900000  0.82830000  1
  C  C140  1  0.32210000  0.04720000  0.85210000  1
  C  C141  1  0.37350000  0.04750000  0.89260000  1
  C  C142  1  0.05750000  0.16450000  0.67100000  1
  C  C143  1  0.45500000  0.96120000  0.99100000  1
  C  C144  1  0.79390000  0.50000000  0.33120000  1
  C  C145  1  0.90000000  0.50000000  0.41360000  1
  C  C146  1  0.95410000  0.50000000  0.45780000  1
  C  C147  1  0.29390000  1.00000000  0.83120000  1
  C  C148  1  0.40000000  0.00000000  0.91360000  1
  C  C149  1  0.45410000  1.00000000  0.95780000  1
  C  C150  1  0.79390000  0.50000000  0.16880000  1
  C  C151  1  0.90000000  0.50000000  0.08640000  1
  C  C152  1  0.95410000  0.50000000  0.04220000  1
  C  C153  1  0.29390000  0.00000000  0.66880000  1
  C  C154  1  0.40000000  1.00000000  0.58640000  1
  C  C155  1  0.45410000  1.00000000  0.54220000  1
  C  C156  1  0.20610000  0.50000000  0.83120000  1
  C  C157  1  0.10000000  0.50000000  0.91360000  1
  C  C158  1  0.04590000  0.50000000  0.95780000  1
  C  C159  1  0.70610000  0.00000000  0.33120000  1
  C  C160  1  0.60000000  1.00000000  0.41360000  1
  C  C161  1  0.54590000  1.00000000  0.45780000  1
  C  C162  1  0.20610000  0.50000000  0.66880000  1
  C  C163  1  0.10000000  0.50000000  0.58640000  1
  C  C164  1  0.04590000  0.50000000  0.54220000  1
  C  C165  1  0.70610000  0.00000000  0.16880000  1
  C  C166  1  0.60000000  0.00000000  0.08640000  1
  C  C167  1  0.54590000  0.00000000  0.04220000  1
  O  O168  1  0.74380000  0.40175000  0.29950000  1
  O  O169  1  0.77660000  0.20610000  0.18420000  1
  O  O170  1  0.59710000  0.36230000  0.20120000  1
  O  O171  1  0.83860000  0.36160000  0.34210000  1
  O  O172  1  0.56860000  0.28770000  0.15780000  1
  O  O173  1  0.24380000  0.90175000  0.79950000  1
  O  O174  1  0.27660000  0.70610000  0.68420000  1
  O  O175  1  0.09710000  0.86230000  0.70120000  1
  O  O176  1  0.33860000  0.86160000  0.84210000  1
  O  O177  1  0.06860000  0.78770000  0.65780000  1
  O  O178  1  0.74380000  0.59825000  0.20050000  1
  O  O179  1  0.77660000  0.79390000  0.31580000  1
  O  O180  1  0.59710000  0.63770000  0.29880000  1
  O  O181  1  0.83860000  0.63840000  0.15790000  1
  O  O182  1  0.56860000  0.71230000  0.34220000  1
  O  O183  1  0.24380000  0.09825000  0.70050000  1
  O  O184  1  0.27660000  0.29390000  0.81580000  1
  O  O185  1  0.09710000  0.13770000  0.79880000  1
  O  O186  1  0.33860000  0.13840000  0.65790000  1
  O  O187  1  0.06860000  0.21230000  0.84220000  1
  O  O188  1  0.25620000  0.59825000  0.79950000  1
  O  O189  1  0.22340000  0.79390000  0.68420000  1
  O  O190  1  0.40290000  0.63770000  0.70120000  1
  O  O191  1  0.16140000  0.63840000  0.84210000  1
  O  O192  1  0.43140000  0.71230000  0.65780000  1
  O  O193  1  0.75620000  0.09825000  0.29950000  1
  O  O194  1  0.72340000  0.29390000  0.18420000  1
  O  O195  1  0.90290000  0.13770000  0.20120000  1
  O  O196  1  0.66140000  0.13840000  0.34210000  1
  O  O197  1  0.93140000  0.21230000  0.15780000  1
  O  O198  1  0.25620000  0.40175000  0.70050000  1
  O  O199  1  0.22340000  0.20610000  0.81580000  1
  O  O200  1  0.40290000  0.36230000  0.79880000  1
  O  O201  1  0.16140000  0.36160000  0.65790000  1
  O  O202  1  0.43140000  0.28770000  0.84220000  1
  O  O203  1  0.75620000  0.90175000  0.20050000  1
  O  O204  1  0.72340000  0.70610000  0.31580000  1
  O  O205  1  0.90290000  0.86230000  0.29880000  1
  O  O206  1  0.66140000  0.86160000  0.15790000  1
  O  O207  1  0.93140000  0.78770000  0.34220000  1
  O  O208  1  0.25620000  0.59825000  0.70050000  1
  O  O209  1  0.22340000  0.79390000  0.81580000  1
  O  O210  1  0.40290000  0.63770000  0.79880000  1
  O  O211  1  0.16140000  0.63840000  0.65790000  1
  O  O212  1  0.43140000  0.71230000  0.84220000  1
  O  O213  1  0.75620000  0.09825000  0.20050000  1
  O  O214  1  0.72340000  0.29390000  0.31580000  1
  O  O215  1  0.90290000  0.13770000  0.29880000  1
  O  O216  1  0.66140000  0.13840000  0.15790000  1
  O  O217  1  0.93140000  0.21230000  0.34220000  1
  O  O218  1  0.25620000  0.40175000  0.79950000  1
  O  O219  1  0.22340000  0.20610000  0.68420000  1
  O  O220  1  0.40290000  0.36230000  0.70120000  1
  O  O221  1  0.16140000  0.36160000  0.84210000  1
  O  O222  1  0.43140000  0.28770000  0.65780000  1
  O  O223  1  0.75620000  0.90175000  0.29950000  1
  O  O224  1  0.72340000  0.70610000  0.18420000  1
  O  O225  1  0.90290000  0.86230000  0.20120000  1
  O  O226  1  0.66140000  0.86160000  0.34210000  1
  O  O227  1  0.93140000  0.78770000  0.15780000  1
  O  O228  1  0.74380000  0.40175000  0.20050000  1
  O  O229  1  0.77660000  0.20610000  0.31580000  1
  O  O230  1  0.59710000  0.36230000  0.29880000  1
  O  O231  1  0.83860000  0.36160000  0.15790000  1
  O  O232  1  0.56860000  0.28770000  0.34220000  1
  O  O233  1  0.24380000  0.90175000  0.70050000  1
  O  O234  1  0.27660000  0.70610000  0.81580000  1
  O  O235  1  0.09710000  0.86230000  0.79880000  1
  O  O236  1  0.33860000  0.86160000  0.65790000  1
  O  O237  1  0.06860000  0.78770000  0.84220000  1
  O  O238  1  0.74380000  0.59825000  0.29950000  1
  O  O239  1  0.77660000  0.79390000  0.18420000  1
  O  O240  1  0.59710000  0.63770000  0.20120000  1
  O  O241  1  0.83860000  0.63840000  0.34210000  1
  O  O242  1  0.56860000  0.71230000  0.15780000  1
  O  O243  1  0.24380000  0.09825000  0.79950000  1
  O  O244  1  0.27660000  0.29390000  0.68420000  1
  O  O245  1  0.09710000  0.13770000  0.70120000  1
  O  O246  1  0.33860000  0.13840000  0.84210000  1
  O  O247  1  0.06860000  0.21230000  0.65780000  1
  O  O248  1  0.62210000  0.26690000  0.25000000  1
  O  O249  1  0.67830000  0.18090000  0.25000000  1
  O  O250  1  0.12210000  0.76690000  0.75000000  1
  O  O251  1  0.17830000  0.68090000  0.75000000  1
  O  O252  1  0.62210000  0.73310000  0.25000000  1
  O  O253  1  0.67830000  0.81910000  0.25000000  1
  O  O254  1  0.12210000  0.23310000  0.75000000  1
  O  O255  1  0.17830000  0.31910000  0.75000000  1
  O  O256  1  0.37790000  0.73310000  0.75000000  1
  O  O257  1  0.32170000  0.81910000  0.75000000  1
  O  O258  1  0.87790000  0.23310000  0.25000000  1
  O  O259  1  0.82170000  0.31910000  0.25000000  1
  O  O260  1  0.37790000  0.26690000  0.75000000  1
  O  O261  1  0.32170000  0.18090000  0.75000000  1
  O  O262  1  0.87790000  0.76690000  0.25000000  1
  O  O263  1  0.82170000  0.68090000  0.25000000  1
