# generated using pymatgen
data_Zr3H5(C6O5)2
_symmetry_space_group_name_H-M   'P 1'
_cell_length_a   12.73180000
_cell_length_b   25.25170000
_cell_length_c   29.17420000
_cell_angle_alpha   90.00000000
_cell_angle_beta   90.00000000
_cell_angle_gamma   90.00000000
_symmetry_Int_Tables_number   1
_chemical_formula_structural   Zr3H5(C6O5)2
_chemical_formula_sum   'Zr24 H40 C96 O80'
_cell_volume   9379.49345703
_cell_formula_units_Z   8
loop_
 _symmetry_equiv_pos_site_id
 _symmetry_equiv_pos_as_xyz
  1  'x, y, z'
loop_
 _atom_site_type_symbol
 _atom_site_label
 _atom_site_symmetry_multiplicity
 _atom_site_fract_x
 _atom_site_fract_y
 _atom_site_fract_z
 _atom_site_occupancy
  Zr  Zr0  1  0.37322000  0.28025000  0.19018000  1
  Zr  Zr1  1  0.87322000  0.78025000  0.69018000  1
  Zr  Zr2  1  0.37322000  0.71975000  0.30982000  1
  Zr  Zr3  1  0.87322000  0.21975000  0.80982000  1
  Zr  Zr4  1  0.62678000  0.71975000  0.69018000  1
  Zr  Zr5  1  0.12678000  0.21975000  0.19018000  1
  Zr  Zr6  1  0.62678000  0.28025000  0.80982000  1
  Zr  Zr7  1  0.12678000  0.78025000  0.30982000  1
  Zr  Zr8  1  0.62678000  0.71975000  0.80982000  1
  Zr  Zr9  1  0.12678000  0.21975000  0.30982000  1
  Zr  Zr10  1  0.62678000  0.28025000  0.69018000  1
  Zr  Zr11  1  0.12678000  0.78025000  0.19018000  1
  Zr  Zr12  1  0.37322000  0.28025000  0.30982000  1
  Zr  Zr13  1  0.87322000  0.78025000  0.80982000  1
  Zr  Zr14  1  0.37322000  0.71975000  0.19018000  1
  Zr  Zr15  1  0.87322000  0.21975000  0.69018000  1
  Zr  Zr16  1  0.16722000  0.33891000  0.25000000  1
  Zr  Zr17  1  0.66722000  0.83891000  0.75000000  1
  Zr  Zr18  1  0.16722000  0.66109000  0.25000000  1
  Zr  Zr19  1  0.66722000  0.16109000  0.75000000  1
  Zr  Zr20  1  0.83278000  0.66109000  0.75000000  1
  Zr  Zr21  1  0.33278000  0.16109000  0.25000000  1
  Zr  Zr22  1  0.83278000  0.33891000  0.75000000  1
  Zr  Zr23  1  0.33278000  0.83891000  0.25000000  1
  H  H24  1  0.38420000  0.42090000  0.40430000  1
  H  H25  1  0.56180000  0.56370000  0.44520000  1
  H  H26  1  0.88420000  0.92090000  0.90430000  1
  H  H27  1  0.89790000  0.07080000  0.97860000  1
  H  H28  1  0.38420000  0.57910000  0.09570000  1
  H  H29  1  0.56180000  0.43630000  0.05480000  1
  H  H30  1  0.88420000  0.07910000  0.59570000  1
  H  H31  1  0.06180000  0.93630000  0.55480000  1
  H  H32  1  0.61580000  0.57910000  0.90430000  1
  H  H33  1  0.60210000  0.42920000  0.97860000  1
  H  H34  1  0.11580000  0.07910000  0.40430000  1
  H  H35  1  0.10210000  0.92920000  0.47860000  1
  H  H36  1  0.61580000  0.42090000  0.59570000  1
  H  H37  1  0.60210000  0.57080000  0.52140000  1
  H  H38  1  0.11580000  0.92090000  0.09570000  1
  H  H39  1  0.93820000  0.06370000  0.05480000  1
  H  H40  1  0.61580000  0.57910000  0.59570000  1
  H  H41  1  0.43820000  0.43630000  0.55480000  1
  H  H42  1  0.11580000  0.07910000  0.09570000  1
  H  H43  1  0.10210000  0.92920000  0.02140000  1
  H  H44  1  0.61580000  0.42090000  0.90430000  1
  H  H45  1  0.43820000  0.56370000  0.94520000  1
  H  H46  1  0.11580000  0.92090000  0.40430000  1
  H  H47  1  0.93820000  0.06370000  0.44520000  1
  H  H48  1  0.38420000  0.42090000  0.09570000  1
  H  H49  1  0.39790000  0.57080000  0.02140000  1
  H  H50  1  0.88420000  0.92090000  0.59570000  1
  H  H51  1  0.89790000  0.07080000  0.52140000  1
  H  H52  1  0.38420000  0.57910000  0.40430000  1
  H  H53  1  0.39790000  0.42920000  0.47860000  1
  H  H54  1  0.88420000  0.07910000  0.90430000  1
  H  H55  1  0.06180000  0.93630000  0.94520000  1
  H  H56  1  0.24750000  0.50000000  0.30110000  1
  H  H57  1  0.74750000  0.00000000  0.80110000  1
  H  H58  1  0.24750000  0.50000000  0.19890000  1
  H  H59  1  0.74750000  0.00000000  0.69890000  1
  H  H60  1  0.75250000  0.50000000  0.80110000  1
  H  H61  1  0.25250000  0.00000000  0.30110000  1
  H  H62  1  0.75250000  0.50000000  0.69890000  1
  H  H63  1  0.25250000  0.00000000  0.19890000  1
  C  C64  1  0.32390000  0.45310000  0.34820000  1
  C  C65  1  0.30340000  0.40190000  0.32470000  1
  C  C66  1  0.37230000  0.45350000  0.38890000  1
  C  C67  1  0.53400000  0.54000000  0.46740000  1
  C  C68  1  0.82390000  0.95310000  0.84820000  1
  C  C69  1  0.80340000  0.90190000  0.82470000  1
  C  C70  1  0.87230000  0.95350000  0.88890000  1
  C  C71  1  0.93600000  0.04070000  0.98890000  1
  C  C72  1  0.32390000  0.54690000  0.15180000  1
  C  C73  1  0.30340000  0.59810000  0.17530000  1
  C  C74  1  0.37230000  0.54650000  0.11110000  1
  C  C75  1  0.53400000  0.46000000  0.03260000  1
  C  C76  1  0.82390000  0.04690000  0.65180000  1
  C  C77  1  0.80340000  0.09810000  0.67530000  1
  C  C78  1  0.87230000  0.04650000  0.61110000  1
  C  C79  1  0.03400000  0.96000000  0.53260000  1
  C  C80  1  0.67610000  0.54690000  0.84820000  1
  C  C81  1  0.69660000  0.59810000  0.82470000  1
  C  C82  1  0.62770000  0.54650000  0.88890000  1
  C  C83  1  0.56400000  0.45930000  0.98890000  1
  C  C84  1  0.17610000  0.04690000  0.34820000  1
  C  C85  1  0.19660000  0.09810000  0.32470000  1
  C  C86  1  0.12770000  0.04650000  0.38890000  1
  C  C87  1  0.06400000  0.95930000  0.48890000  1
  C  C88  1  0.67610000  0.45310000  0.65180000  1
  C  C89  1  0.69660000  0.40190000  0.67530000  1
  C  C90  1  0.62770000  0.45350000  0.61110000  1
  C  C91  1  0.56400000  0.54070000  0.51110000  1
  C  C92  1  0.17610000  0.95310000  0.15180000  1
  C  C93  1  0.19660000  0.90190000  0.17530000  1
  C  C94  1  0.12770000  0.95350000  0.11110000  1
  C  C95  1  0.96600000  0.04000000  0.03260000  1
  C  C96  1  0.67610000  0.54690000  0.65180000  1
  C  C97  1  0.69660000  0.59810000  0.67530000  1
  C  C98  1  0.62770000  0.54650000  0.61110000  1
  C  C99  1  0.46600000  0.46000000  0.53260000  1
  C  C100  1  0.17610000  0.04690000  0.15180000  1
  C  C101  1  0.19660000  0.09810000  0.17530000  1
  C  C102  1  0.12770000  0.04650000  0.11110000  1
  C  C103  1  0.06400000  0.95930000  0.01110000  1
  C  C104  1  0.67610000  0.45310000  0.84820000  1
  C  C105  1  0.69660000  0.40190000  0.82470000  1
  C  C106  1  0.62770000  0.45350000  0.88890000  1
  C  C107  1  0.46600000  0.54000000  0.96740000  1
  C  C108  1  0.17610000  0.95310000  0.34820000  1
  C  C109  1  0.19660000  0.90190000  0.32470000  1
  C  C110  1  0.12770000  0.95350000  0.38890000  1
  C  C111  1  0.96600000  0.04000000  0.46740000  1
  C  C112  1  0.32390000  0.45310000  0.15180000  1
  C  C113  1  0.30340000  0.40190000  0.17530000  1
  C  C114  1  0.37230000  0.45350000  0.11110000  1
  C  C115  1  0.43600000  0.54070000  0.01110000  1
  C  C116  1  0.82390000  0.95310000  0.65180000  1
  C  C117  1  0.80340000  0.90190000  0.67530000  1
  C  C118  1  0.87230000  0.95350000  0.61110000  1
  C  C119  1  0.93600000  0.04070000  0.51110000  1
  C  C120  1  0.32390000  0.54690000  0.34820000  1
  C  C121  1  0.30340000  0.59810000  0.32470000  1
  C  C122  1  0.37230000  0.54650000  0.38890000  1
  C  C123  1  0.43600000  0.45930000  0.48890000  1
  C  C124  1  0.82390000  0.04690000  0.84820000  1
  C  C125  1  0.80340000  0.09810000  0.82470000  1
  C  C126  1  0.87230000  0.04650000  0.88890000  1
  C  C127  1  0.03400000  0.96000000  0.96740000  1
  C  C128  1  0.29060000  0.50000000  0.32760000  1
  C  C129  1  0.40500000  0.50000000  0.40940000  1
  C  C130  1  0.45600000  0.50000000  0.45620000  1
  C  C131  1  0.79060000  0.00000000  0.82760000  1
  C  C132  1  0.90500000  0.00000000  0.90940000  1
  C  C133  1  0.95600000  0.00000000  0.95620000  1
  C  C134  1  0.29060000  0.50000000  0.17240000  1
  C  C135  1  0.40500000  0.50000000  0.09060000  1
  C  C136  1  0.45600000  0.50000000  0.04380000  1
  C  C137  1  0.79060000  0.00000000  0.67240000  1
  C  C138  1  0.90500000  0.00000000  0.59060000  1
  C  C139  1  0.95600000  0.00000000  0.54380000  1
  C  C140  1  0.70940000  0.50000000  0.82760000  1
  C  C141  1  0.59500000  0.50000000  0.90940000  1
  C  C142  1  0.54400000  0.50000000  0.95620000  1
  C  C143  1  0.20940000  0.00000000  0.32760000  1
  C  C144  1  0.09500000  0.00000000  0.40940000  1
  C  C145  1  0.04400000  0.00000000  0.45620000  1
  C  C146  1  0.70940000  0.50000000  0.67240000  1
  C  C147  1  0.59500000  0.50000000  0.59060000  1
  C  C148  1  0.54400000  0.50000000  0.54380000  1
  C  C149  1  0.20940000  0.00000000  0.17240000  1
  C  C150  1  0.09500000  0.00000000  0.09060000  1
  C  C151  1  0.04400000  1.00000000  0.04380000  1
  C  C152  1  0.25000000  0.25000000  0.09400000  1
  C  C153  1  0.25000000  0.75000000  0.40600000  1
  C  C154  1  0.75000000  0.75000000  0.59400000  1
  C  C155  1  0.75000000  0.25000000  0.90600000  1
  C  C156  1  0.75000000  0.75000000  0.90600000  1
  C  C157  1  0.25000000  0.25000000  0.40600000  1
  C  C158  1  0.75000000  0.25000000  0.59400000  1
  C  C159  1  0.25000000  0.75000000  0.09400000  1
  O  O160  1  0.23000000  0.40120000  0.29600000  1
  O  O161  1  0.35890000  0.36200000  0.33620000  1
  O  O162  1  0.29340000  0.20770000  0.19230000  1
  O  O163  1  0.33230000  0.27000000  0.11520000  1
  O  O164  1  0.73000000  0.90120000  0.79600000  1
  O  O165  1  0.85890000  0.86200000  0.83620000  1
  O  O166  1  0.79340000  0.70770000  0.69230000  1
  O  O167  1  0.83230000  0.77000000  0.61520000  1
  O  O168  1  0.23000000  0.59880000  0.20400000  1
  O  O169  1  0.35890000  0.63800000  0.16380000  1
  O  O170  1  0.29340000  0.79230000  0.30770000  1
  O  O171  1  0.33230000  0.73000000  0.38480000  1
  O  O172  1  0.73000000  0.09880000  0.70400000  1
  O  O173  1  0.85890000  0.13800000  0.66380000  1
  O  O174  1  0.79340000  0.29230000  0.80770000  1
  O  O175  1  0.83230000  0.23000000  0.88480000  1
  O  O176  1  0.77000000  0.59880000  0.79600000  1
  O  O177  1  0.64110000  0.63800000  0.83620000  1
  O  O178  1  0.70660000  0.79230000  0.69230000  1
  O  O179  1  0.66770000  0.73000000  0.61520000  1
  O  O180  1  0.27000000  0.09880000  0.29600000  1
  O  O181  1  0.14110000  0.13800000  0.33620000  1
  O  O182  1  0.20660000  0.29230000  0.19230000  1
  O  O183  1  0.16770000  0.23000000  0.11520000  1
  O  O184  1  0.77000000  0.40120000  0.70400000  1
  O  O185  1  0.64110000  0.36200000  0.66380000  1
  O  O186  1  0.70660000  0.20770000  0.80770000  1
  O  O187  1  0.66770000  0.27000000  0.88480000  1
  O  O188  1  0.27000000  0.90120000  0.20400000  1
  O  O189  1  0.14110000  0.86200000  0.16380000  1
  O  O190  1  0.20660000  0.70770000  0.30770000  1
  O  O191  1  0.16770000  0.77000000  0.38480000  1
  O  O192  1  0.77000000  0.59880000  0.70400000  1
  O  O193  1  0.64110000  0.63800000  0.66380000  1
  O  O194  1  0.70660000  0.79230000  0.80770000  1
  O  O195  1  0.66770000  0.73000000  0.88480000  1
  O  O196  1  0.27000000  0.09880000  0.20400000  1
  O  O197  1  0.14110000  0.13800000  0.16380000  1
  O  O198  1  0.20660000  0.29230000  0.30770000  1
  O  O199  1  0.16770000  0.23000000  0.38480000  1
  O  O200  1  0.77000000  0.40120000  0.79600000  1
  O  O201  1  0.64110000  0.36200000  0.83620000  1
  O  O202  1  0.70660000  0.20770000  0.69230000  1
  O  O203  1  0.66770000  0.27000000  0.61520000  1
  O  O204  1  0.27000000  0.90120000  0.29600000  1
  O  O205  1  0.14110000  0.86200000  0.33620000  1
  O  O206  1  0.20660000  0.70770000  0.19230000  1
  O  O207  1  0.16770000  0.77000000  0.11520000  1
  O  O208  1  0.23000000  0.40120000  0.20400000  1
  O  O209  1  0.35890000  0.36200000  0.16380000  1
  O  O210  1  0.29340000  0.20770000  0.30770000  1
  O  O211  1  0.33230000  0.27000000  0.38480000  1
  O  O212  1  0.73000000  0.90120000  0.70400000  1
  O  O213  1  0.85890000  0.86200000  0.66380000  1
  O  O214  1  0.79340000  0.70770000  0.80770000  1
  O  O215  1  0.83230000  0.77000000  0.88480000  1
  O  O216  1  0.23000000  0.59880000  0.29600000  1
  O  O217  1  0.35890000  0.63800000  0.33620000  1
  O  O218  1  0.29340000  0.79230000  0.19230000  1
  O  O219  1  0.33230000  0.73000000  0.11520000  1
  O  O220  1  0.73000000  0.09880000  0.79600000  1
  O  O221  1  0.85890000  0.13800000  0.83620000  1
  O  O222  1  0.79340000  0.29230000  0.69230000  1
  O  O223  1  0.83230000  0.23000000  0.61520000  1
  O  O224  1  0.33660000  0.32020000  0.25000000  1
  O  O225  1  0.41750000  0.23560000  0.25000000  1
  O  O226  1  0.83660000  0.82020000  0.75000000  1
  O  O227  1  0.91750000  0.73560000  0.75000000  1
  O  O228  1  0.33660000  0.67980000  0.25000000  1
  O  O229  1  0.41750000  0.76440000  0.25000000  1
  O  O230  1  0.83660000  0.17980000  0.75000000  1
  O  O231  1  0.91750000  0.26440000  0.75000000  1
  O  O232  1  0.66340000  0.67980000  0.75000000  1
  O  O233  1  0.58250000  0.76440000  0.75000000  1
  O  O234  1  0.16340000  0.17980000  0.25000000  1
  O  O235  1  0.08250000  0.26440000  0.25000000  1
  O  O236  1  0.66340000  0.32020000  0.75000000  1
  O  O237  1  0.58250000  0.23560000  0.75000000  1
  O  O238  1  0.16340000  0.82020000  0.25000000  1
  O  O239  1  0.08250000  0.73560000  0.25000000  1
