# generated using pymatgen
data_Zr3H5C13O12
_symmetry_space_group_name_H-M   'P 1'
_cell_length_a   18.90510000
_cell_length_b   20.43507324
_cell_length_c   20.43507324
_cell_angle_alpha   75.88734258
_cell_angle_beta   62.44725238
_cell_angle_gamma   62.44725238
_symmetry_Int_Tables_number   1
_chemical_formula_structural   Zr3H5C13O12
_chemical_formula_sum   'Zr12 H20 C52 O48'
_cell_volume   6200.95867689
_cell_formula_units_Z   4
loop_
 _symmetry_equiv_pos_site_id
 _symmetry_equiv_pos_as_xyz
  1  'x, y, z'
loop_
 _atom_site_type_symbol
 _atom_site_label
 _atom_site_symmetry_multiplicity
 _atom_site_fract_x
 _atom_site_fract_y
 _atom_site_fract_z
 _atom_site_occupancy
  C  C0  1  0.02690000  0.26910000  0.06630000  1
  C  C1  1  0.01800000  0.15430000  0.05690000  1
  C  C2  1  0.02910000  0.19270000  0.09790000  1
  C  C3  1  0.08030000  0.49470000  0.17710000  1
  C  C4  1  0.94860000  0.08370000  0.00110000  1
  C  C5  1  0.86230000  0.23090000  0.43370000  1
  C  C6  1  0.72920000  0.34570000  0.44310000  1
  C  C7  1  0.81970000  0.30730000  0.40210000  1
  C  C8  1  0.25210000  0.00530000  0.32290000  1
  C  C9  1  0.56410000  0.44940000  0.53440000  1
  C  C10  1  0.13770000  0.56630000  0.76910000  1
  C  C11  1  0.27080000  0.55690000  0.65430000  1
  C  C12  1  0.18030000  0.59790000  0.69270000  1
  C  C13  1  0.74790000  0.67710000  0.99470000  1
  C  C14  1  0.46660000  0.50110000  0.58370000  1
  C  C15  1  0.97310000  0.93370000  0.73090000  1
  C  C16  1  0.98200000  0.94310000  0.84570000  1
  C  C17  1  0.97090000  0.90210000  0.80730000  1
  C  C18  1  0.91970000  0.82290000  0.50530000  1
  C  C19  1  0.95210000  0.03440000  0.94940000  1
  C  C20  1  0.97310000  0.73090000  0.93370000  1
  C  C21  1  0.98200000  0.84570000  0.94310000  1
  C  C22  1  0.97090000  0.80730000  0.90210000  1
  C  C23  1  0.91970000  0.50530000  0.82290000  1
  C  C24  1  0.05140000  0.91630000  0.99890000  1
  C  C25  1  0.13770000  0.76910000  0.56630000  1
  C  C26  1  0.27080000  0.65430000  0.55690000  1
  C  C27  1  0.18030000  0.69270000  0.59790000  1
  C  C28  1  0.74790000  0.99470000  0.67710000  1
  C  C29  1  0.43590000  0.55060000  0.46560000  1
  C  C30  1  0.86230000  0.43370000  0.23090000  1
  C  C31  1  0.72920000  0.44310000  0.34570000  1
  C  C32  1  0.81970000  0.40210000  0.30730000  1
  C  C33  1  0.25210000  0.32290000  0.00530000  1
  C  C34  1  0.53340000  0.49890000  0.41630000  1
  C  C35  1  0.02690000  0.06630000  0.26910000  1
  C  C36  1  0.01800000  0.05690000  0.15430000  1
  C  C37  1  0.02910000  0.09790000  0.19270000  1
  C  C38  1  0.08030000  0.17710000  0.49470000  1
  C  C39  1  0.04790000  0.96560000  0.05060000  1
  C  C40  1  0.03530000  0.16330000  0.16330000  1
  C  C41  1  0.01520000  0.08480000  0.08480000  1
  C  C42  1  0.00440000  0.04360000  0.04360000  1
  C  C43  1  0.86190000  0.33670000  0.33670000  1
  C  C44  1  0.68480000  0.41520000  0.41520000  1
  C  C45  1  0.59160000  0.45640000  0.45640000  1
  C  C46  1  0.13810000  0.66330000  0.66330000  1
  C  C47  1  0.31520000  0.58480000  0.58480000  1
  C  C48  1  0.40840000  0.54360000  0.54360000  1
  C  C49  1  0.96470000  0.83670000  0.83670000  1
  C  C50  1  0.98480000  0.91520000  0.91520000  1
  C  C51  1  0.99560000  0.95640000  0.95640000  1
  H  H52  1  0.01270000  0.17470000  0.01150000  1
  H  H53  1  0.69890000  0.32530000  0.48850000  1
  H  H54  1  0.30110000  0.51150000  0.67470000  1
  H  H55  1  0.98730000  0.98850000  0.82530000  1
  H  H56  1  0.98730000  0.82530000  0.98850000  1
  H  H57  1  0.30110000  0.67470000  0.51150000  1
  H  H58  1  0.69890000  0.48850000  0.32530000  1
  H  H59  1  0.01270000  0.01150000  0.17470000  1
  H  H60  1  0.04440000  0.18930000  0.18930000  1
  H  H61  1  0.92300000  0.31070000  0.31070000  1
  H  H62  1  0.07700000  0.68930000  0.68930000  1
  H  H63  1  0.95560000  0.81070000  0.81070000  1
  H  H64  1  0.90725000  0.14564000  0.00706000  1
  H  H65  1  0.92119000  0.05962000  0.90774000  1
  H  H66  1  0.09275000  0.85436000  0.99294000  1
  H  H67  1  0.07881000  0.94038000  0.09226000  1
  H  H68  1  0.61145000  0.40774000  0.55962000  1
  H  H69  1  0.55995000  0.49294000  0.35436000  1
  H  H70  1  0.44005000  0.50706000  0.64564000  1
  H  H71  1  0.38855000  0.59226000  0.44038000  1
  O  O72  1  0.04750000  0.29670000  0.10190000  1
  O  O73  1  0.01020000  0.29480000  0.01400000  1
  O  O74  1  0.07860000  0.43090000  0.16810000  1
  O  O75  1  0.95280000  0.52260000  0.11220000  1
  O  O76  1  0.06240000  0.55270000  0.13990000  1
  O  O77  1  0.94610000  0.20330000  0.39810000  1
  O  O78  1  0.81900000  0.20520000  0.48600000  1
  O  O79  1  0.17760000  0.06910000  0.33190000  1
  O  O80  1  0.08760000  0.97740000  0.38780000  1
  O  O81  1  0.25500000  0.94730000  0.36010000  1
  O  O82  1  0.05390000  0.60190000  0.79670000  1
  O  O83  1  0.18100000  0.51400000  0.79480000  1
  O  O84  1  0.82240000  0.66810000  0.93090000  1
  O  O85  1  0.91240000  0.61220000  0.02260000  1
  O  O86  1  0.74500000  0.63990000  0.05270000  1
  O  O87  1  0.95250000  0.89810000  0.70330000  1
  O  O88  1  0.98980000  0.98600000  0.70520000  1
  O  O89  1  0.92140000  0.83190000  0.56910000  1
  O  O90  1  0.04720000  0.88780000  0.47740000  1
  O  O91  1  0.93760000  0.86010000  0.44730000  1
  O  O92  1  0.95250000  0.70330000  0.89810000  1
  O  O93  1  0.98980000  0.70520000  0.98600000  1
  O  O94  1  0.92140000  0.56910000  0.83190000  1
  O  O95  1  0.04720000  0.47740000  0.88780000  1
  O  O96  1  0.93760000  0.44730000  0.86010000  1
  O  O97  1  0.05390000  0.79670000  0.60190000  1
  O  O98  1  0.18100000  0.79480000  0.51400000  1
  O  O99  1  0.82240000  0.93090000  0.66810000  1
  O  O100  1  0.91240000  0.02260000  0.61220000  1
  O  O101  1  0.74500000  0.05270000  0.63990000  1
  O  O102  1  0.94610000  0.39810000  0.20330000  1
  O  O103  1  0.81900000  0.48600000  0.20520000  1
  O  O104  1  0.17760000  0.33190000  0.06910000  1
  O  O105  1  0.08760000  0.38780000  0.97740000  1
  O  O106  1  0.25500000  0.36010000  0.94730000  1
  O  O107  1  0.04750000  0.10190000  0.29670000  1
  O  O108  1  0.01020000  0.01400000  0.29480000  1
  O  O109  1  0.07860000  0.16810000  0.43090000  1
  O  O110  1  0.95280000  0.11220000  0.52260000  1
  O  O111  1  0.06240000  0.13990000  0.55270000  1
  O  O112  1  0.93430000  0.43440000  0.06560000  1
  O  O113  1  0.89000000  0.52060000  0.97940000  1
  O  O114  1  0.93430000  0.06560000  0.43440000  1
  O  O115  1  0.89000000  0.97940000  0.52060000  1
  O  O116  1  0.06570000  0.56560000  0.93440000  1
  O  O117  1  0.11000000  0.47940000  0.02060000  1
  O  O118  1  0.06570000  0.93440000  0.56560000  1
  O  O119  1  0.11000000  0.02060000  0.47940000  1
  Zr  Zr120  1  0.84483000  0.54380000  0.09148000  1
  Zr  Zr121  1  0.98011000  0.95620000  0.40852000  1
  Zr  Zr122  1  0.01989000  0.59148000  0.04380000  1
  Zr  Zr123  1  0.15517000  0.90852000  0.45620000  1
  Zr  Zr124  1  0.15517000  0.45620000  0.90852000  1
  Zr  Zr125  1  0.01989000  0.04380000  0.59148000  1
  Zr  Zr126  1  0.98011000  0.40852000  0.95620000  1
  Zr  Zr127  1  0.84483000  0.09148000  0.54380000  1
  Zr  Zr128  1  0.04352000  0.40789000  0.09211000  1
  Zr  Zr129  1  0.04352000  0.09211000  0.40789000  1
  Zr  Zr130  1  0.95648000  0.59211000  0.90789000  1
  Zr  Zr131  1  0.95648000  0.90789000  0.59211000  1
