# generated using pymatgen
data_Zr3H5C13O12
_symmetry_space_group_name_H-M   'P 1'
_cell_length_a   14.23720000
_cell_length_b   25.32500000
_cell_length_c   28.40800000
_cell_angle_alpha   90.00000000
_cell_angle_beta   90.00000000
_cell_angle_gamma   90.00000000
_symmetry_Int_Tables_number   1
_chemical_formula_structural   Zr3H5C13O12
_chemical_formula_sum   'Zr24 H40 C104 O96'
_cell_volume   10242.70581272
_cell_formula_units_Z   8
loop_
 _symmetry_equiv_pos_site_id
 _symmetry_equiv_pos_as_xyz
  1  'x, y, z'
loop_
 _atom_site_type_symbol
 _atom_site_label
 _atom_site_symmetry_multiplicity
 _atom_site_fract_x
 _atom_site_fract_y
 _atom_site_fract_z
 _atom_site_occupancy
  Zr  Zr0  1  0.36343000  0.27768000  0.18815000  1
  Zr  Zr1  1  0.86343000  0.77768000  0.68815000  1
  Zr  Zr2  1  0.36343000  0.72232000  0.31185000  1
  Zr  Zr3  1  0.86343000  0.22232000  0.81185000  1
  Zr  Zr4  1  0.63657000  0.72232000  0.68815000  1
  Zr  Zr5  1  0.13657000  0.22232000  0.18815000  1
  Zr  Zr6  1  0.63657000  0.27768000  0.81185000  1
  Zr  Zr7  1  0.13657000  0.77768000  0.31185000  1
  Zr  Zr8  1  0.63657000  0.72232000  0.81185000  1
  Zr  Zr9  1  0.13657000  0.22232000  0.31185000  1
  Zr  Zr10  1  0.63657000  0.27768000  0.68815000  1
  Zr  Zr11  1  0.13657000  0.77768000  0.18815000  1
  Zr  Zr12  1  0.36343000  0.27768000  0.31185000  1
  Zr  Zr13  1  0.86343000  0.77768000  0.81185000  1
  Zr  Zr14  1  0.36343000  0.72232000  0.18815000  1
  Zr  Zr15  1  0.86343000  0.22232000  0.68815000  1
  Zr  Zr16  1  0.18333000  0.33938000  0.25000000  1
  Zr  Zr17  1  0.68333000  0.83938000  0.75000000  1
  Zr  Zr18  1  0.18333000  0.66062000  0.25000000  1
  Zr  Zr19  1  0.68333000  0.16062000  0.75000000  1
  Zr  Zr20  1  0.81667000  0.66062000  0.75000000  1
  Zr  Zr21  1  0.31667000  0.16062000  0.25000000  1
  Zr  Zr22  1  0.81667000  0.33938000  0.75000000  1
  Zr  Zr23  1  0.31667000  0.83938000  0.25000000  1
  H  H24  1  0.39060000  0.42130000  0.40410000  1
  H  H25  1  0.38870000  0.43520000  0.48720000  1
  H  H26  1  0.89060000  0.92130000  0.90410000  1
  H  H27  1  0.02630000  0.93450000  0.94830000  1
  H  H28  1  0.39060000  0.57870000  0.09590000  1
  H  H29  1  0.52630000  0.56550000  0.05170000  1
  H  H30  1  0.89060000  0.07870000  0.59590000  1
  H  H31  1  0.88870000  0.06480000  0.51280000  1
  H  H32  1  0.60940000  0.57870000  0.90410000  1
  H  H33  1  0.61130000  0.56480000  0.98720000  1
  H  H34  1  0.10940000  0.07870000  0.40410000  1
  H  H35  1  0.97370000  0.06550000  0.44830000  1
  H  H36  1  0.60940000  0.42130000  0.59590000  1
  H  H37  1  0.47370000  0.43450000  0.55170000  1
  H  H38  1  0.10940000  0.92130000  0.09590000  1
  H  H39  1  0.11130000  0.93520000  0.01280000  1
  H  H40  1  0.60940000  0.57870000  0.59590000  1
  H  H41  1  0.61130000  0.56480000  0.51280000  1
  H  H42  1  0.10940000  0.07870000  0.09590000  1
  H  H43  1  0.97370000  0.06550000  0.05170000  1
  H  H44  1  0.60940000  0.42130000  0.90410000  1
  H  H45  1  0.47370000  0.43450000  0.94830000  1
  H  H46  1  0.10940000  0.92130000  0.40410000  1
  H  H47  1  0.11130000  0.93520000  0.48720000  1
  H  H48  1  0.39060000  0.42130000  0.09590000  1
  H  H49  1  0.38870000  0.43520000  0.01280000  1
  H  H50  1  0.89060000  0.92130000  0.59590000  1
  H  H51  1  0.02630000  0.93450000  0.55170000  1
  H  H52  1  0.39060000  0.57870000  0.40410000  1
  H  H53  1  0.52630000  0.56550000  0.44830000  1
  H  H54  1  0.89060000  0.07870000  0.90410000  1
  H  H55  1  0.88870000  0.06480000  0.98720000  1
  H  H56  1  0.26430000  0.50000000  0.29950000  1
  H  H57  1  0.76430000  0.00000000  0.79950000  1
  H  H58  1  0.26430000  0.50000000  0.20050000  1
  H  H59  1  0.76430000  0.00000000  0.70050000  1
  H  H60  1  0.73570000  0.50000000  0.79950000  1
  H  H61  1  0.23570000  0.00000000  0.29950000  1
  H  H62  1  0.73570000  0.50000000  0.70050000  1
  H  H63  1  0.23570000  0.00000000  0.20050000  1
  C  C64  1  0.31020000  0.40180000  0.32400000  1
  C  C65  1  0.37770000  0.45320000  0.38930000  1
  C  C66  1  0.32750000  0.45300000  0.34690000  1
  C  C67  1  0.02290000  0.33580000  0.32720000  1
  C  C68  1  0.43400000  0.46110000  0.49150000  1
  C  C69  1  0.81020000  0.90180000  0.82400000  1
  C  C70  1  0.87770000  0.95320000  0.88930000  1
  C  C71  1  0.82750000  0.95300000  0.84690000  1
  C  C72  1  0.52290000  0.83580000  0.82720000  1
  C  C73  1  0.01600000  0.96220000  0.96920000  1
  C  C74  1  0.31020000  0.59820000  0.17600000  1
  C  C75  1  0.37770000  0.54680000  0.11070000  1
  C  C76  1  0.32750000  0.54700000  0.15310000  1
  C  C77  1  0.02290000  0.66420000  0.17280000  1
  C  C78  1  0.51600000  0.53780000  0.03080000  1
  C  C79  1  0.81020000  0.09820000  0.67600000  1
  C  C80  1  0.87770000  0.04680000  0.61070000  1
  C  C81  1  0.82750000  0.04700000  0.65310000  1
  C  C82  1  0.52290000  0.16420000  0.67280000  1
  C  C83  1  0.93400000  0.03890000  0.50850000  1
  C  C84  1  0.68980000  0.59820000  0.82400000  1
  C  C85  1  0.62230000  0.54680000  0.88930000  1
  C  C86  1  0.67250000  0.54700000  0.84690000  1
  C  C87  1  0.97710000  0.66420000  0.82720000  1
  C  C88  1  0.56600000  0.53890000  0.99150000  1
  C  C89  1  0.18980000  0.09820000  0.32400000  1
  C  C90  1  0.12230000  0.04680000  0.38930000  1
  C  C91  1  0.17250000  0.04700000  0.34690000  1
  C  C92  1  0.47710000  0.16420000  0.32720000  1
  C  C93  1  0.98400000  0.03780000  0.46920000  1
  C  C94  1  0.68980000  0.40180000  0.67600000  1
  C  C95  1  0.62230000  0.45320000  0.61070000  1
  C  C96  1  0.67250000  0.45300000  0.65310000  1
  C  C97  1  0.97710000  0.33580000  0.67280000  1
  C  C98  1  0.48400000  0.46220000  0.53080000  1
  C  C99  1  0.18980000  0.90180000  0.17600000  1
  C  C100  1  0.12230000  0.95320000  0.11070000  1
  C  C101  1  0.17250000  0.95300000  0.15310000  1
  C  C102  1  0.47710000  0.83580000  0.17280000  1
  C  C103  1  0.06600000  0.96110000  0.00850000  1
  C  C104  1  0.68980000  0.59820000  0.67600000  1
  C  C105  1  0.62230000  0.54680000  0.61070000  1
  C  C106  1  0.67250000  0.54700000  0.65310000  1
  C  C107  1  0.97710000  0.66420000  0.67280000  1
  C  C108  1  0.56600000  0.53890000  0.50850000  1
  C  C109  1  0.18980000  0.09820000  0.17600000  1
  C  C110  1  0.12230000  0.04680000  0.11070000  1
  C  C111  1  0.17250000  0.04700000  0.15310000  1
  C  C112  1  0.47710000  0.16420000  0.17280000  1
  C  C113  1  0.98400000  0.03780000  0.03080000  1
  C  C114  1  0.68980000  0.40180000  0.82400000  1
  C  C115  1  0.62230000  0.45320000  0.88930000  1
  C  C116  1  0.67250000  0.45300000  0.84690000  1
  C  C117  1  0.97710000  0.33580000  0.82720000  1
  C  C118  1  0.48400000  0.46220000  0.96920000  1
  C  C119  1  0.18980000  0.90180000  0.32400000  1
  C  C120  1  0.12230000  0.95320000  0.38930000  1
  C  C121  1  0.17250000  0.95300000  0.34690000  1
  C  C122  1  0.47710000  0.83580000  0.32720000  1
  C  C123  1  0.06600000  0.96110000  0.49150000  1
  C  C124  1  0.31020000  0.40180000  0.17600000  1
  C  C125  1  0.37770000  0.45320000  0.11070000  1
  C  C126  1  0.32750000  0.45300000  0.15310000  1
  C  C127  1  0.02290000  0.33580000  0.17280000  1
  C  C128  1  0.43400000  0.46110000  0.00850000  1
  C  C129  1  0.81020000  0.90180000  0.67600000  1
  C  C130  1  0.87770000  0.95320000  0.61070000  1
  C  C131  1  0.82750000  0.95300000  0.65310000  1
  C  C132  1  0.52290000  0.83580000  0.67280000  1
  C  C133  1  0.01600000  0.96220000  0.53080000  1
  C  C134  1  0.31020000  0.59820000  0.32400000  1
  C  C135  1  0.37770000  0.54680000  0.38930000  1
  C  C136  1  0.32750000  0.54700000  0.34690000  1
  C  C137  1  0.02290000  0.66420000  0.32720000  1
  C  C138  1  0.51600000  0.53780000  0.46920000  1
  C  C139  1  0.81020000  0.09820000  0.82400000  1
  C  C140  1  0.87770000  0.04680000  0.88930000  1
  C  C141  1  0.82750000  0.04700000  0.84690000  1
  C  C142  1  0.52290000  0.16420000  0.82720000  1
  C  C143  1  0.93400000  0.03890000  0.99150000  1
  C  C144  1  0.30060000  0.50000000  0.32670000  1
  C  C145  1  0.45000000  0.50000000  0.45520000  1
  C  C146  1  0.40900000  0.50000000  0.40960000  1
  C  C147  1  0.80060000  0.00000000  0.82670000  1
  C  C148  1  0.95000000  0.00000000  0.95520000  1
  C  C149  1  0.90900000  0.00000000  0.90960000  1
  C  C150  1  0.30060000  0.50000000  0.17330000  1
  C  C151  1  0.45000000  0.50000000  0.04480000  1
  C  C152  1  0.40900000  0.50000000  0.09040000  1
  C  C153  1  0.80060000  0.00000000  0.67330000  1
  C  C154  1  0.95000000  0.00000000  0.54480000  1
  C  C155  1  0.90900000  0.00000000  0.59040000  1
  C  C156  1  0.69940000  0.50000000  0.82670000  1
  C  C157  1  0.55000000  0.50000000  0.95520000  1
  C  C158  1  0.59100000  0.50000000  0.90960000  1
  C  C159  1  0.19940000  0.00000000  0.32670000  1
  C  C160  1  0.05000000  0.00000000  0.45520000  1
  C  C161  1  0.09100000  0.00000000  0.40960000  1
  C  C162  1  0.69940000  0.50000000  0.67330000  1
  C  C163  1  0.55000000  0.50000000  0.54480000  1
  C  C164  1  0.59100000  0.50000000  0.59040000  1
  C  C165  1  0.19940000  0.00000000  0.17330000  1
  C  C166  1  0.05000000  0.00000000  0.04480000  1
  C  C167  1  0.09100000  0.00000000  0.09040000  1
  O  O168  1  0.24220000  0.40140000  0.29640000  1
  O  O169  1  0.21860000  0.29300000  0.19000000  1
  O  O170  1  0.35120000  0.36120000  0.33750000  1
  O  O171  1  0.06850000  0.36130000  0.29670000  1
  O  O172  1  0.03350000  0.28450000  0.33700000  1
  O  O173  1  0.74220000  0.90140000  0.79640000  1
  O  O174  1  0.71860000  0.79300000  0.69000000  1
  O  O175  1  0.85120000  0.86120000  0.83750000  1
  O  O176  1  0.56850000  0.86130000  0.79670000  1
  O  O177  1  0.53350000  0.78450000  0.83700000  1
  O  O178  1  0.24220000  0.59860000  0.20360000  1
  O  O179  1  0.21860000  0.70700000  0.31000000  1
  O  O180  1  0.35120000  0.63880000  0.16250000  1
  O  O181  1  0.06850000  0.63870000  0.20330000  1
  O  O182  1  0.03350000  0.71550000  0.16300000  1
  O  O183  1  0.74220000  0.09860000  0.70360000  1
  O  O184  1  0.71860000  0.20700000  0.81000000  1
  O  O185  1  0.85120000  0.13880000  0.66250000  1
  O  O186  1  0.56850000  0.13870000  0.70330000  1
  O  O187  1  0.53350000  0.21550000  0.66300000  1
  O  O188  1  0.75780000  0.59860000  0.79640000  1
  O  O189  1  0.78140000  0.70700000  0.69000000  1
  O  O190  1  0.64880000  0.63880000  0.83750000  1
  O  O191  1  0.93150000  0.63870000  0.79670000  1
  O  O192  1  0.96650000  0.71550000  0.83700000  1
  O  O193  1  0.25780000  0.09860000  0.29640000  1
  O  O194  1  0.28140000  0.20700000  0.19000000  1
  O  O195  1  0.14880000  0.13880000  0.33750000  1
  O  O196  1  0.43150000  0.13870000  0.29670000  1
  O  O197  1  0.46650000  0.21550000  0.33700000  1
  O  O198  1  0.75780000  0.40140000  0.70360000  1
  O  O199  1  0.78140000  0.29300000  0.81000000  1
  O  O200  1  0.64880000  0.36120000  0.66250000  1
  O  O201  1  0.93150000  0.36130000  0.70330000  1
  O  O202  1  0.96650000  0.28450000  0.66300000  1
  O  O203  1  0.25780000  0.90140000  0.20360000  1
  O  O204  1  0.28140000  0.79300000  0.31000000  1
  O  O205  1  0.14880000  0.86120000  0.16250000  1
  O  O206  1  0.43150000  0.86130000  0.20330000  1
  O  O207  1  0.46650000  0.78450000  0.16300000  1
  O  O208  1  0.75780000  0.59860000  0.70360000  1
  O  O209  1  0.78140000  0.70700000  0.81000000  1
  O  O210  1  0.64880000  0.63880000  0.66250000  1
  O  O211  1  0.93150000  0.63870000  0.70330000  1
  O  O212  1  0.96650000  0.71550000  0.66300000  1
  O  O213  1  0.25780000  0.09860000  0.20360000  1
  O  O214  1  0.28140000  0.20700000  0.31000000  1
  O  O215  1  0.14880000  0.13880000  0.16250000  1
  O  O216  1  0.43150000  0.13870000  0.20330000  1
  O  O217  1  0.46650000  0.21550000  0.16300000  1
  O  O218  1  0.75780000  0.40140000  0.79640000  1
  O  O219  1  0.78140000  0.29300000  0.69000000  1
  O  O220  1  0.64880000  0.36120000  0.83750000  1
  O  O221  1  0.93150000  0.36130000  0.79670000  1
  O  O222  1  0.96650000  0.28450000  0.83700000  1
  O  O223  1  0.25780000  0.90140000  0.29640000  1
  O  O224  1  0.28140000  0.79300000  0.19000000  1
  O  O225  1  0.14880000  0.86120000  0.33750000  1
  O  O226  1  0.43150000  0.86130000  0.29670000  1
  O  O227  1  0.46650000  0.78450000  0.33700000  1
  O  O228  1  0.24220000  0.40140000  0.20360000  1
  O  O229  1  0.21860000  0.29300000  0.31000000  1
  O  O230  1  0.35120000  0.36120000  0.16250000  1
  O  O231  1  0.06850000  0.36130000  0.20330000  1
  O  O232  1  0.03350000  0.28450000  0.16300000  1
  O  O233  1  0.74220000  0.90140000  0.70360000  1
  O  O234  1  0.71860000  0.79300000  0.81000000  1
  O  O235  1  0.85120000  0.86120000  0.66250000  1
  O  O236  1  0.56850000  0.86130000  0.70330000  1
  O  O237  1  0.53350000  0.78450000  0.66300000  1
  O  O238  1  0.24220000  0.59860000  0.29640000  1
  O  O239  1  0.21860000  0.70700000  0.19000000  1
  O  O240  1  0.35120000  0.63880000  0.33750000  1
  O  O241  1  0.06850000  0.63870000  0.29670000  1
  O  O242  1  0.03350000  0.71550000  0.33700000  1
  O  O243  1  0.74220000  0.09860000  0.79640000  1
  O  O244  1  0.71860000  0.20700000  0.69000000  1
  O  O245  1  0.85120000  0.13880000  0.83750000  1
  O  O246  1  0.56850000  0.13870000  0.79670000  1
  O  O247  1  0.53350000  0.21550000  0.83700000  1
  O  O248  1  0.33190000  0.31960000  0.25000000  1
  O  O249  1  0.39860000  0.23350000  0.25000000  1
  O  O250  1  0.83190000  0.81960000  0.75000000  1
  O  O251  1  0.89860000  0.73350000  0.75000000  1
  O  O252  1  0.33190000  0.68040000  0.25000000  1
  O  O253  1  0.39860000  0.76650000  0.25000000  1
  O  O254  1  0.83190000  0.18040000  0.75000000  1
  O  O255  1  0.89860000  0.26650000  0.75000000  1
  O  O256  1  0.66810000  0.68040000  0.75000000  1
  O  O257  1  0.60140000  0.76650000  0.75000000  1
  O  O258  1  0.16810000  0.18040000  0.25000000  1
  O  O259  1  0.10140000  0.26650000  0.25000000  1
  O  O260  1  0.66810000  0.31960000  0.75000000  1
  O  O261  1  0.60140000  0.23350000  0.75000000  1
  O  O262  1  0.16810000  0.81960000  0.25000000  1
  O  O263  1  0.10140000  0.73350000  0.25000000  1
