# generated using pymatgen
data_Zr3H5C13O12
_symmetry_space_group_name_H-M   'P 1'
_cell_length_a   13.71900000
_cell_length_b   25.29700000
_cell_length_c   28.54900000
_cell_angle_alpha   90.00000000
_cell_angle_beta   90.00000000
_cell_angle_gamma   90.00000000
_symmetry_Int_Tables_number   1
_chemical_formula_structural   Zr3H5C13O12
_chemical_formula_sum   'Zr24 H40 C104 O96'
_cell_volume   9907.91740311
_cell_formula_units_Z   8
loop_
 _symmetry_equiv_pos_site_id
 _symmetry_equiv_pos_as_xyz
  1  'x, y, z'
loop_
 _atom_site_type_symbol
 _atom_site_label
 _atom_site_symmetry_multiplicity
 _atom_site_fract_x
 _atom_site_fract_y
 _atom_site_fract_z
 _atom_site_occupancy
  Zr  Zr0  1  0.36630000  0.77817000  0.81146000  1
  Zr  Zr1  1  0.86630000  0.27817000  0.31146000  1
  Zr  Zr2  1  0.36630000  0.22183000  0.68854000  1
  Zr  Zr3  1  0.86630000  0.72183000  0.18854000  1
  Zr  Zr4  1  0.63370000  0.22183000  0.31146000  1
  Zr  Zr5  1  0.13370000  0.72183000  0.81146000  1
  Zr  Zr6  1  0.63370000  0.77817000  0.18854000  1
  Zr  Zr7  1  0.13370000  0.27817000  0.68854000  1
  Zr  Zr8  1  0.63370000  0.22183000  0.18854000  1
  Zr  Zr9  1  0.13370000  0.72183000  0.68854000  1
  Zr  Zr10  1  0.63370000  0.77817000  0.31146000  1
  Zr  Zr11  1  0.13370000  0.27817000  0.81146000  1
  Zr  Zr12  1  0.36630000  0.77817000  0.68854000  1
  Zr  Zr13  1  0.86630000  0.27817000  0.18854000  1
  Zr  Zr14  1  0.36630000  0.22183000  0.81146000  1
  Zr  Zr15  1  0.86630000  0.72183000  0.31146000  1
  Zr  Zr16  1  0.32140000  0.66120000  0.75000000  1
  Zr  Zr17  1  0.82140000  0.16120000  0.25000000  1
  Zr  Zr18  1  0.32140000  0.33880000  0.75000000  1
  Zr  Zr19  1  0.82140000  0.83880000  0.25000000  1
  Zr  Zr20  1  0.67860000  0.33880000  0.25000000  1
  Zr  Zr21  1  0.17860000  0.83880000  0.75000000  1
  Zr  Zr22  1  0.67860000  0.66120000  0.25000000  1
  Zr  Zr23  1  0.17860000  0.16120000  0.75000000  1
  H  H24  1  0.11390000  0.57950000  0.59630000  1
  H  H25  1  0.95770000  0.43720000  0.55580000  1
  H  H26  1  0.61390000  0.07950000  0.09630000  1
  H  H27  1  0.62160000  0.93360000  0.01440000  1
  H  H28  1  0.11390000  0.42050000  0.90370000  1
  H  H29  1  0.95770000  0.56280000  0.94420000  1
  H  H30  1  0.61390000  0.92050000  0.40370000  1
  H  H31  1  0.45770000  0.06280000  0.44420000  1
  H  H32  1  0.88610000  0.42050000  0.09630000  1
  H  H33  1  0.87840000  0.56640000  0.01440000  1
  H  H34  1  0.38610000  0.92050000  0.59630000  1
  H  H35  1  0.37840000  0.06640000  0.51440000  1
  H  H36  1  0.88610000  0.57950000  0.40370000  1
  H  H37  1  0.87840000  0.43360000  0.48560000  1
  H  H38  1  0.38610000  0.07950000  0.90370000  1
  H  H39  1  0.54230000  0.93720000  0.94420000  1
  H  H40  1  0.88610000  0.42050000  0.40370000  1
  H  H41  1  0.04230000  0.56280000  0.44420000  1
  H  H42  1  0.38610000  0.92050000  0.90370000  1
  H  H43  1  0.37840000  0.06640000  0.98560000  1
  H  H44  1  0.88610000  0.57950000  0.09630000  1
  H  H45  1  0.04230000  0.43720000  0.05580000  1
  H  H46  1  0.38610000  0.07950000  0.59630000  1
  H  H47  1  0.54230000  0.93720000  0.55580000  1
  H  H48  1  0.11390000  0.57950000  0.90370000  1
  H  H49  1  0.12160000  0.43360000  0.98560000  1
  H  H50  1  0.61390000  0.07950000  0.40370000  1
  H  H51  1  0.62160000  0.93360000  0.48560000  1
  H  H52  1  0.11390000  0.42050000  0.59630000  1
  H  H53  1  0.12160000  0.56640000  0.51440000  1
  H  H54  1  0.61390000  0.92050000  0.09630000  1
  H  H55  1  0.45770000  0.06280000  0.05580000  1
  H  H56  1  0.23880000  0.50000000  0.70340000  1
  H  H57  1  0.73880000  0.00000000  0.20340000  1
  H  H58  1  0.23880000  0.50000000  0.79660000  1
  H  H59  1  0.73880000  1.00000000  0.29660000  1
  H  H60  1  0.76120000  0.50000000  0.20340000  1
  H  H61  1  0.26120000  1.00000000  0.70340000  1
  H  H62  1  0.76120000  0.50000000  0.29660000  1
  H  H63  1  0.26120000  0.00000000  0.79660000  1
  C  C64  1  0.18750000  0.59840000  0.67590000  1
  C  C65  1  0.17190000  0.54740000  0.65270000  1
  C  C66  1  0.12640000  0.54700000  0.61180000  1
  C  C67  1  0.48560000  0.66530000  0.82580000  1
  C  C68  1  0.97600000  0.46220000  0.53250000  1
  C  C69  1  0.68750000  0.09840000  0.17590000  1
  C  C70  1  0.67190000  0.04740000  0.15270000  1
  C  C71  1  0.62640000  0.04700000  0.11180000  1
  C  C72  1  0.98560000  0.16530000  0.32580000  1
  C  C73  1  0.57500000  0.96070000  0.00900000  1
  C  C74  1  0.18750000  0.40160000  0.82410000  1
  C  C75  1  0.17190000  0.45260000  0.84730000  1
  C  C76  1  0.12640000  0.45300000  0.88820000  1
  C  C77  1  0.48560000  0.33470000  0.67420000  1
  C  C78  1  0.97600000  0.53780000  0.96750000  1
  C  C79  1  0.68750000  0.90160000  0.32410000  1
  C  C80  1  0.67190000  0.95260000  0.34730000  1
  C  C81  1  0.62640000  0.95300000  0.38820000  1
  C  C82  1  0.98560000  0.83470000  0.17420000  1
  C  C83  1  0.47600000  0.03780000  0.46750000  1
  C  C84  1  0.81250000  0.40160000  0.17590000  1
  C  C85  1  0.82810000  0.45260000  0.15270000  1
  C  C86  1  0.87360000  0.45300000  0.11180000  1
  C  C87  1  0.51440000  0.33470000  0.32580000  1
  C  C88  1  0.92500000  0.53930000  0.00900000  1
  C  C89  1  0.31250000  0.90160000  0.67590000  1
  C  C90  1  0.32810000  0.95260000  0.65270000  1
  C  C91  1  0.37360000  0.95300000  0.61180000  1
  C  C92  1  0.01440000  0.83470000  0.82580000  1
  C  C93  1  0.42500000  0.03930000  0.50900000  1
  C  C94  1  0.81250000  0.59840000  0.32410000  1
  C  C95  1  0.82810000  0.54740000  0.34730000  1
  C  C96  1  0.87360000  0.54700000  0.38820000  1
  C  C97  1  0.51440000  0.66530000  0.17420000  1
  C  C98  1  0.92500000  0.46070000  0.49100000  1
  C  C99  1  0.31250000  0.09840000  0.82410000  1
  C  C100  1  0.32810000  0.04740000  0.84730000  1
  C  C101  1  0.37360000  0.04700000  0.88820000  1
  C  C102  1  0.01440000  0.16530000  0.67420000  1
  C  C103  1  0.52400000  0.96220000  0.96750000  1
  C  C104  1  0.81250000  0.40160000  0.32410000  1
  C  C105  1  0.82810000  0.45260000  0.34730000  1
  C  C106  1  0.87360000  0.45300000  0.38820000  1
  C  C107  1  0.51440000  0.33470000  0.17420000  1
  C  C108  1  0.02400000  0.53780000  0.46750000  1
  C  C109  1  0.31250000  0.90160000  0.82410000  1
  C  C110  1  0.32810000  0.95260000  0.84730000  1
  C  C111  1  0.37360000  0.95300000  0.88820000  1
  C  C112  1  0.01440000  0.83470000  0.67420000  1
  C  C113  1  0.42500000  0.03930000  0.99100000  1
  C  C114  1  0.81250000  0.59840000  0.17590000  1
  C  C115  1  0.82810000  0.54740000  0.15270000  1
  C  C116  1  0.87360000  0.54700000  0.11180000  1
  C  C117  1  0.51440000  0.66530000  0.32580000  1
  C  C118  1  0.02400000  0.46220000  0.03250000  1
  C  C119  1  0.31250000  0.09840000  0.67590000  1
  C  C120  1  0.32810000  0.04740000  0.65270000  1
  C  C121  1  0.37360000  0.04700000  0.61180000  1
  C  C122  1  0.01440000  0.16530000  0.82580000  1
  C  C123  1  0.52400000  0.96220000  0.53250000  1
  C  C124  1  0.18750000  0.59840000  0.82410000  1
  C  C125  1  0.17190000  0.54740000  0.84730000  1
  C  C126  1  0.12640000  0.54700000  0.88820000  1
  C  C127  1  0.48560000  0.66530000  0.67420000  1
  C  C128  1  0.07500000  0.46070000  0.99100000  1
  C  C129  1  0.68750000  0.09840000  0.32410000  1
  C  C130  1  0.67190000  0.04740000  0.34730000  1
  C  C131  1  0.62640000  0.04700000  0.38820000  1
  C  C132  1  0.98560000  0.16530000  0.17420000  1
  C  C133  1  0.57500000  0.96070000  0.49100000  1
  C  C134  1  0.18750000  0.40160000  0.67590000  1
  C  C135  1  0.17190000  0.45260000  0.65270000  1
  C  C136  1  0.12640000  0.45300000  0.61180000  1
  C  C137  1  0.48560000  0.33470000  0.82580000  1
  C  C138  1  0.07500000  0.53930000  0.50900000  1
  C  C139  1  0.68750000  0.90160000  0.17590000  1
  C  C140  1  0.67190000  0.95260000  0.15270000  1
  C  C141  1  0.62640000  0.95300000  0.11180000  1
  C  C142  1  0.98560000  0.83470000  0.32580000  1
  C  C143  1  0.47600000  0.03780000  0.03250000  1
  C  C144  1  0.20170000  0.50000000  0.67530000  1
  C  C145  1  0.09600000  0.50000000  0.59110000  1
  C  C146  1  0.05800000  0.50000000  0.54440000  1
  C  C147  1  0.70170000  0.00000000  0.17530000  1
  C  C148  1  0.59600000  0.00000000  0.09110000  1
  C  C149  1  0.55800000  0.00000000  0.04440000  1
  C  C150  1  0.20170000  0.50000000  0.82470000  1
  C  C151  1  0.09600000  0.50000000  0.90890000  1
  C  C152  1  0.05800000  0.50000000  0.95560000  1
  C  C153  1  0.70170000  0.00000000  0.32470000  1
  C  C154  1  0.59600000  0.00000000  0.40890000  1
  C  C155  1  0.55800000  1.00000000  0.45560000  1
  C  C156  1  0.79830000  0.50000000  0.17530000  1
  C  C157  1  0.90400000  0.50000000  0.09110000  1
  C  C158  1  0.94200000  0.50000000  0.04440000  1
  C  C159  1  0.29830000  0.00000000  0.67530000  1
  C  C160  1  0.40400000  0.00000000  0.59110000  1
  C  C161  1  0.44200000  0.00000000  0.54440000  1
  C  C162  1  0.79830000  0.50000000  0.32470000  1
  C  C163  1  0.90400000  0.50000000  0.40890000  1
  C  C164  1  0.94200000  0.50000000  0.45560000  1
  C  C165  1  0.29830000  0.00000000  0.82470000  1
  C  C166  1  0.40400000  0.00000000  0.90890000  1
  C  C167  1  0.44200000  1.00000000  0.95560000  1
  O  O168  1  0.26030000  0.59890000  0.70330000  1
  O  O169  1  0.27980000  0.70640000  0.80890000  1
  O  O170  1  0.14420000  0.63820000  0.66440000  1
  O  O171  1  0.43380000  0.63920000  0.79810000  1
  O  O172  1  0.47500000  0.71770000  0.83850000  1
  O  O173  1  0.76030000  0.09890000  0.20330000  1
  O  O174  1  0.77980000  0.20640000  0.30890000  1
  O  O175  1  0.64420000  0.13820000  0.16440000  1
  O  O176  1  0.93380000  0.13920000  0.29810000  1
  O  O177  1  0.97500000  0.21770000  0.33850000  1
  O  O178  1  0.26030000  0.40110000  0.79670000  1
  O  O179  1  0.27980000  0.29360000  0.69110000  1
  O  O180  1  0.14420000  0.36180000  0.83560000  1
  O  O181  1  0.43380000  0.36080000  0.70190000  1
  O  O182  1  0.47500000  0.28230000  0.66150000  1
  O  O183  1  0.76030000  0.90110000  0.29670000  1
  O  O184  1  0.77980000  0.79360000  0.19110000  1
  O  O185  1  0.64420000  0.86180000  0.33560000  1
  O  O186  1  0.93380000  0.86080000  0.20190000  1
  O  O187  1  0.97500000  0.78230000  0.16150000  1
  O  O188  1  0.73970000  0.40110000  0.20330000  1
  O  O189  1  0.72020000  0.29360000  0.30890000  1
  O  O190  1  0.85580000  0.36180000  0.16440000  1
  O  O191  1  0.56620000  0.36080000  0.29810000  1
  O  O192  1  0.52500000  0.28230000  0.33850000  1
  O  O193  1  0.23970000  0.90110000  0.70330000  1
  O  O194  1  0.22020000  0.79360000  0.80890000  1
  O  O195  1  0.35580000  0.86180000  0.66440000  1
  O  O196  1  0.06620000  0.86080000  0.79810000  1
  O  O197  1  0.02500000  0.78230000  0.83850000  1
  O  O198  1  0.73970000  0.59890000  0.29670000  1
  O  O199  1  0.72020000  0.70640000  0.19110000  1
  O  O200  1  0.85580000  0.63820000  0.33560000  1
  O  O201  1  0.56620000  0.63920000  0.20190000  1
  O  O202  1  0.52500000  0.71770000  0.16150000  1
  O  O203  1  0.23970000  0.09890000  0.79670000  1
  O  O204  1  0.22020000  0.20640000  0.69110000  1
  O  O205  1  0.35580000  0.13820000  0.83560000  1
  O  O206  1  0.06620000  0.13920000  0.70190000  1
  O  O207  1  0.02500000  0.21770000  0.66150000  1
  O  O208  1  0.73970000  0.40110000  0.29670000  1
  O  O209  1  0.72020000  0.29360000  0.19110000  1
  O  O210  1  0.85580000  0.36180000  0.33560000  1
  O  O211  1  0.56620000  0.36080000  0.20190000  1
  O  O212  1  0.52500000  0.28230000  0.16150000  1
  O  O213  1  0.23970000  0.90110000  0.79670000  1
  O  O214  1  0.22020000  0.79360000  0.69110000  1
  O  O215  1  0.35580000  0.86180000  0.83560000  1
  O  O216  1  0.06620000  0.86080000  0.70190000  1
  O  O217  1  0.02500000  0.78230000  0.66150000  1
  O  O218  1  0.73970000  0.59890000  0.20330000  1
  O  O219  1  0.72020000  0.70640000  0.30890000  1
  O  O220  1  0.85580000  0.63820000  0.16440000  1
  O  O221  1  0.56620000  0.63920000  0.29810000  1
  O  O222  1  0.52500000  0.71770000  0.33850000  1
  O  O223  1  0.23970000  0.09890000  0.70330000  1
  O  O224  1  0.22020000  0.20640000  0.80890000  1
  O  O225  1  0.35580000  0.13820000  0.66440000  1
  O  O226  1  0.06620000  0.13920000  0.79810000  1
  O  O227  1  0.02500000  0.21770000  0.83850000  1
  O  O228  1  0.26030000  0.59890000  0.79670000  1
  O  O229  1  0.27980000  0.70640000  0.69110000  1
  O  O230  1  0.14420000  0.63820000  0.83560000  1
  O  O231  1  0.43380000  0.63920000  0.70190000  1
  O  O232  1  0.47500000  0.71770000  0.66150000  1
  O  O233  1  0.76030000  0.09890000  0.29670000  1
  O  O234  1  0.77980000  0.20640000  0.19110000  1
  O  O235  1  0.64420000  0.13820000  0.33560000  1
  O  O236  1  0.93380000  0.13920000  0.20190000  1
  O  O237  1  0.97500000  0.21770000  0.16150000  1
  O  O238  1  0.26030000  0.40110000  0.70330000  1
  O  O239  1  0.27980000  0.29360000  0.80890000  1
  O  O240  1  0.14420000  0.36180000  0.66440000  1
  O  O241  1  0.43380000  0.36080000  0.79810000  1
  O  O242  1  0.47500000  0.28230000  0.83850000  1
  O  O243  1  0.76030000  0.90110000  0.20330000  1
  O  O244  1  0.77980000  0.79360000  0.30890000  1
  O  O245  1  0.64420000  0.86180000  0.16440000  1
  O  O246  1  0.93380000  0.86080000  0.29810000  1
  O  O247  1  0.97500000  0.78230000  0.33850000  1
  O  O248  1  0.33520000  0.81790000  0.75000000  1
  O  O249  1  0.40250000  0.73470000  0.75000000  1
  O  O250  1  0.83520000  0.31790000  0.25000000  1
  O  O251  1  0.90250000  0.23470000  0.25000000  1
  O  O252  1  0.33520000  0.18210000  0.75000000  1
  O  O253  1  0.40250000  0.26530000  0.75000000  1
  O  O254  1  0.83520000  0.68210000  0.25000000  1
  O  O255  1  0.90250000  0.76530000  0.25000000  1
  O  O256  1  0.66480000  0.18210000  0.25000000  1
  O  O257  1  0.59750000  0.26530000  0.25000000  1
  O  O258  1  0.16480000  0.68210000  0.75000000  1
  O  O259  1  0.09750000  0.76530000  0.75000000  1
  O  O260  1  0.66480000  0.81790000  0.25000000  1
  O  O261  1  0.59750000  0.73470000  0.25000000  1
  O  O262  1  0.16480000  0.31790000  0.75000000  1
  O  O263  1  0.09750000  0.23470000  0.75000000  1
