# generated using pymatgen
data_Zr3H5C11O8
_symmetry_space_group_name_H-M   'P 1'
_cell_length_a   8.27710000
_cell_length_b   20.32858536
_cell_length_c   20.32858536
_cell_angle_alpha   77.27149950
_cell_angle_beta   78.25345086
_cell_angle_gamma   78.25345086
_symmetry_Int_Tables_number   1
_chemical_formula_structural   Zr3H5C11O8
_chemical_formula_sum   'Zr12 H20 C44 O32'
_cell_volume   3221.15549015
_cell_formula_units_Z   4
loop_
 _symmetry_equiv_pos_site_id
 _symmetry_equiv_pos_as_xyz
  1  'x, y, z'
loop_
 _atom_site_type_symbol
 _atom_site_label
 _atom_site_symmetry_multiplicity
 _atom_site_fract_x
 _atom_site_fract_y
 _atom_site_fract_z
 _atom_site_occupancy
  C  C0  1  0.48060000  0.72410000  0.91890000  1
  C  C1  1  0.47990000  0.79810000  0.89210000  1
  C  C2  1  0.49800000  0.84020000  0.93380000  1
  C  C3  1  0.41700000  0.02070000  0.94530000  1
  C  C4  1  0.02020000  0.48650000  0.56910000  1
  C  C5  1  0.62360000  0.77590000  0.58110000  1
  C  C6  1  0.67010000  0.70190000  0.60790000  1
  C  C7  1  0.77200000  0.65980000  0.56620000  1
  C  C8  1  0.37640000  0.41890000  0.22410000  1
  C  C9  1  0.32990000  0.39210000  0.29810000  1
  C  C10  1  0.22800000  0.43380000  0.34020000  1
  C  C11  1  0.11700000  0.44530000  0.52070000  1
  C  C12  1  0.42420000  0.06910000  0.98650000  1
  C  C13  1  0.51940000  0.08110000  0.27590000  1
  C  C14  1  0.52010000  0.10790000  0.20190000  1
  C  C15  1  0.50200000  0.06620000  0.15980000  1
  C  C16  1  0.51940000  0.27590000  0.08110000  1
  C  C17  1  0.52010000  0.20190000  0.10790000  1
  C  C18  1  0.50200000  0.15980000  0.06620000  1
  C  C19  1  0.58300000  0.97930000  0.05470000  1
  C  C20  1  0.97980000  0.51350000  0.43090000  1
  C  C21  1  0.37640000  0.22410000  0.41890000  1
  C  C22  1  0.32990000  0.29810000  0.39210000  1
  C  C23  1  0.22800000  0.34020000  0.43380000  1
  C  C24  1  0.62360000  0.58110000  0.77590000  1
  C  C25  1  0.67010000  0.60790000  0.70190000  1
  C  C26  1  0.77200000  0.56620000  0.65980000  1
  C  C27  1  0.88300000  0.55470000  0.47930000  1
  C  C28  1  0.57580000  0.93090000  0.01350000  1
  C  C29  1  0.48060000  0.91890000  0.72410000  1
  C  C30  1  0.47990000  0.89210000  0.79810000  1
  C  C31  1  0.49800000  0.93380000  0.84020000  1
  C  C32  1  0.50420000  0.90880000  0.90880000  1
  C  C33  1  0.47070000  0.82430000  0.82430000  1
  C  C34  1  0.51090000  0.95410000  0.95410000  1
  C  C35  1  0.82180000  0.59120000  0.59120000  1
  C  C36  1  0.61930000  0.67570000  0.67570000  1
  C  C37  1  0.91910000  0.54590000  0.54590000  1
  C  C38  1  0.17820000  0.40880000  0.40880000  1
  C  C39  1  0.38070000  0.32430000  0.32430000  1
  C  C40  1  0.08090000  0.45410000  0.45410000  1
  C  C41  1  0.49580000  0.09120000  0.09120000  1
  C  C42  1  0.52930000  0.17570000  0.17570000  1
  C  C43  1  0.48910000  0.04590000  0.04590000  1
  H  H44  1  0.50750000  0.82170000  0.98030000  1
  H  H45  1  0.34640000  0.03380000  0.91140000  1
  H  H46  1  0.02660000  0.47260000  0.61640000  1
  H  H47  1  0.80950000  0.67830000  0.51970000  1
  H  H48  1  0.19050000  0.48030000  0.32170000  1
  H  H49  1  0.20840000  0.41140000  0.53380000  1
  H  H50  1  0.38440000  0.11640000  0.97260000  1
  H  H51  1  0.49250000  0.01970000  0.17830000  1
  H  H52  1  0.49250000  0.17830000  0.01970000  1
  H  H53  1  0.65360000  0.96620000  0.08860000  1
  H  H54  1  0.97340000  0.52740000  0.38360000  1
  H  H55  1  0.19050000  0.32170000  0.48030000  1
  H  H56  1  0.80950000  0.51970000  0.67830000  1
  H  H57  1  0.79160000  0.58860000  0.46620000  1
  H  H58  1  0.61560000  0.88360000  0.02740000  1
  H  H59  1  0.50750000  0.98030000  0.82170000  1
  H  H60  1  0.45810000  0.79540000  0.79540000  1
  H  H61  1  0.54890000  0.70460000  0.70460000  1
  H  H62  1  0.45110000  0.29540000  0.29540000  1
  H  H63  1  0.54190000  0.20460000  0.20460000  1
  O  O64  1  0.62770000  0.40140000  0.98560000  1
  O  O65  1  0.40370000  0.69290000  0.89270000  1
  O  O66  1  0.56240000  0.69740000  0.96800000  1
  O  O67  1  0.51470000  0.09860000  0.51440000  1
  O  O68  1  0.48930000  0.80710000  0.60730000  1
  O  O69  1  0.72780000  0.80260000  0.53200000  1
  O  O70  1  0.48530000  0.48560000  0.90140000  1
  O  O71  1  0.51070000  0.39270000  0.19290000  1
  O  O72  1  0.27220000  0.46800000  0.19740000  1
  O  O73  1  0.37230000  0.01440000  0.59860000  1
  O  O74  1  0.59630000  0.10730000  0.30710000  1
  O  O75  1  0.43760000  0.03200000  0.30260000  1
  O  O76  1  0.37230000  0.59860000  0.01440000  1
  O  O77  1  0.59630000  0.30710000  0.10730000  1
  O  O78  1  0.43760000  0.30260000  0.03200000  1
  O  O79  1  0.48530000  0.90140000  0.48560000  1
  O  O80  1  0.51070000  0.19290000  0.39270000  1
  O  O81  1  0.27220000  0.19740000  0.46800000  1
  O  O82  1  0.51470000  0.51440000  0.09860000  1
  O  O83  1  0.48930000  0.60730000  0.80710000  1
  O  O84  1  0.72780000  0.53200000  0.80260000  1
  O  O85  1  0.62770000  0.98560000  0.40140000  1
  O  O86  1  0.40370000  0.89270000  0.69290000  1
  O  O87  1  0.56240000  0.96800000  0.69740000  1
  O  O88  1  0.24600000  0.51160000  0.98840000  1
  O  O89  1  0.37930000  0.42640000  0.07360000  1
  O  O90  1  0.24600000  0.98840000  0.51160000  1
  O  O91  1  0.37930000  0.07360000  0.42640000  1
  O  O92  1  0.75400000  0.48840000  0.01160000  1
  O  O93  1  0.62070000  0.57360000  0.92640000  1
  O  O94  1  0.75400000  0.01160000  0.48840000  1
  O  O95  1  0.62070000  0.92640000  0.57360000  1
  Zr  Zr96  1  0.37416000  0.40941000  0.97625000  1
  Zr  Zr97  1  0.25982000  0.09059000  0.52375000  1
  Zr  Zr98  1  0.74018000  0.47625000  0.90941000  1
  Zr  Zr99  1  0.62584000  0.02375000  0.59059000  1
  Zr  Zr100  1  0.62584000  0.59059000  0.02375000  1
  Zr  Zr101  1  0.74018000  0.90941000  0.47625000  1
  Zr  Zr102  1  0.25982000  0.52375000  0.09059000  1
  Zr  Zr103  1  0.37416000  0.97625000  0.40941000  1
  Zr  Zr104  1  0.35968000  0.58619000  0.91381000  1
  Zr  Zr105  1  0.35968000  0.91381000  0.58619000  1
  Zr  Zr106  1  0.64032000  0.41381000  0.08619000  1
  Zr  Zr107  1  0.64032000  0.08619000  0.41381000  1
