# generated using pymatgen
data_Zr3Co3H24C36(N3O8)2
_symmetry_space_group_name_H-M   'P 1'
_cell_length_a   21.40412227
_cell_length_b   21.40412227
_cell_length_c   21.40412227
_cell_angle_alpha   60.00000000
_cell_angle_beta   60.00000000
_cell_angle_gamma   60.00000000
_symmetry_Int_Tables_number   1
_chemical_formula_structural   Zr3Co3H24C36(N3O8)2
_chemical_formula_sum   'Zr6 Co6 H48 C72 N12 O32'
_cell_volume   6933.89517075
_cell_formula_units_Z   2
loop_
 _symmetry_equiv_pos_site_id
 _symmetry_equiv_pos_as_xyz
  1  'x, y, z'
loop_
 _atom_site_type_symbol
 _atom_site_label
 _atom_site_symmetry_multiplicity
 _atom_site_fract_x
 _atom_site_fract_y
 _atom_site_fract_z
 _atom_site_occupancy
  C  C0  1  0.00000000  1.00000000  0.20780000  1
  C  C1  1  1.00000000  0.00000000  0.27540000  1
  C  C2  1  0.94520000  0.05480000  0.31200000  1
  C  C3  1  0.94860000  0.05140000  0.37240000  1
  C  C4  1  0.79220000  0.00000000  0.20780000  1
  C  C5  1  0.72460000  0.00000000  0.27540000  1
  C  C6  1  0.68800000  0.05480000  0.31200000  1
  C  C7  1  0.62760000  0.05140000  0.37240000  1
  C  C8  1  0.79220000  0.20780000  0.00000000  1
  C  C9  1  0.72460000  0.27540000  0.00000000  1
  C  C10  1  0.68800000  0.31200000  0.05480000  1
  C  C11  1  0.62760000  0.37240000  0.05140000  1
  C  C12  1  0.00000000  0.20780000  0.00000000  1
  C  C13  1  0.00000000  0.27540000  1.00000000  1
  C  C14  1  0.94520000  0.31200000  0.05480000  1
  C  C15  1  0.94860000  0.37240000  0.05140000  1
  C  C16  1  0.00000000  1.00000000  0.79220000  1
  C  C17  1  0.00000000  1.00000000  0.72460000  1
  C  C18  1  0.05480000  0.94520000  0.68800000  1
  C  C19  1  0.05140000  0.94860000  0.62760000  1
  C  C20  1  0.20780000  0.00000000  0.79220000  1
  C  C21  1  0.27540000  0.00000000  0.72460000  1
  C  C22  1  0.31200000  0.94520000  0.68800000  1
  C  C23  1  0.37240000  0.94860000  0.62760000  1
  C  C24  1  0.20780000  0.79220000  0.00000000  1
  C  C25  1  0.27540000  0.72460000  0.00000000  1
  C  C26  1  0.31200000  0.68800000  0.94520000  1
  C  C27  1  0.37240000  0.62760000  0.94860000  1
  C  C28  1  1.00000000  0.79220000  0.00000000  1
  C  C29  1  1.00000000  0.72460000  0.00000000  1
  C  C30  1  0.05480000  0.68800000  0.94520000  1
  C  C31  1  0.05140000  0.62760000  0.94860000  1
  C  C32  1  0.05480000  0.31200000  0.94520000  1
  C  C33  1  0.05140000  0.37240000  0.94860000  1
  C  C34  1  0.05480000  0.94520000  0.31200000  1
  C  C35  1  0.05140000  0.94860000  0.37240000  1
  C  C36  1  0.68800000  0.94520000  0.31200000  1
  C  C37  1  0.62760000  0.94860000  0.37240000  1
  C  C38  1  0.68800000  0.31200000  0.94520000  1
  C  C39  1  0.62760000  0.37240000  0.94860000  1
  C  C40  1  0.31200000  0.05480000  0.68800000  1
  C  C41  1  0.37240000  0.05140000  0.62760000  1
  C  C42  1  0.31200000  0.68800000  0.05480000  1
  C  C43  1  0.37240000  0.62760000  0.05140000  1
  C  C44  1  0.94520000  0.68800000  0.05480000  1
  C  C45  1  0.94860000  0.62760000  0.05140000  1
  C  C46  1  0.94520000  0.05480000  0.68800000  1
  C  C47  1  0.94860000  0.05140000  0.62760000  1
  C  C48  1  0.20780000  1.00000000  0.00000000  1
  C  C49  1  0.27540000  1.00000000  0.00000000  1
  C  C50  1  0.31200000  0.94520000  0.05480000  1
  C  C51  1  0.37240000  0.94860000  0.05140000  1
  C  C52  1  0.00000000  0.20780000  0.79220000  1
  C  C53  1  0.00000000  0.27540000  0.72460000  1
  C  C54  1  0.94520000  0.31200000  0.68800000  1
  C  C55  1  0.94860000  0.37240000  0.62760000  1
  C  C56  1  0.31200000  0.05480000  0.94520000  1
  C  C57  1  0.37240000  0.05140000  0.94860000  1
  C  C58  1  0.00000000  0.79220000  0.20780000  1
  C  C59  1  0.00000000  0.72460000  0.27540000  1
  C  C60  1  0.05480000  0.68800000  0.31200000  1
  C  C61  1  0.05140000  0.62760000  0.37240000  1
  C  C62  1  0.79220000  0.00000000  0.00000000  1
  C  C63  1  0.72460000  0.00000000  0.00000000  1
  C  C64  1  0.68800000  0.94520000  0.05480000  1
  C  C65  1  0.62760000  0.94860000  0.05140000  1
  C  C66  1  0.68800000  0.05480000  0.94520000  1
  C  C67  1  0.62760000  0.05140000  0.94860000  1
  C  C68  1  0.05480000  0.31200000  0.68800000  1
  C  C69  1  0.05140000  0.37240000  0.62760000  1
  C  C70  1  0.94520000  0.68800000  0.31200000  1
  C  C71  1  0.94860000  0.62760000  0.37240000  1
  Co  Co72  1  0.00000000  1.00000000  0.50000000  1
  Co  Co73  1  0.50000000  0.00000000  0.50000000  1
  Co  Co74  1  0.50000000  0.50000000  0.00000000  1
  Co  Co75  1  0.00000000  0.50000000  0.00000000  1
  Co  Co76  1  0.50000000  0.00000000  0.00000000  1
  Co  Co77  1  0.00000000  0.50000000  0.50000000  1
  H  H78  1  0.90550000  0.09450000  0.29210000  1
  H  H79  1  0.90960000  0.09040000  0.39380000  1
  H  H80  1  0.70790000  0.09450000  0.29210000  1
  H  H81  1  0.60620000  0.09040000  0.39380000  1
  H  H82  1  0.70790000  0.29210000  0.09450000  1
  H  H83  1  0.60620000  0.39380000  0.09040000  1
  H  H84  1  0.90550000  0.29210000  0.09450000  1
  H  H85  1  0.90960000  0.39380000  0.09040000  1
  H  H86  1  0.09450000  0.90550000  0.70790000  1
  H  H87  1  0.09040000  0.90960000  0.60620000  1
  H  H88  1  0.29210000  0.90550000  0.70790000  1
  H  H89  1  0.39380000  0.90960000  0.60620000  1
  H  H90  1  0.29210000  0.70790000  0.90550000  1
  H  H91  1  0.39380000  0.60620000  0.90960000  1
  H  H92  1  0.09450000  0.70790000  0.90550000  1
  H  H93  1  0.09040000  0.60620000  0.90960000  1
  H  H94  1  0.09450000  0.29210000  0.90550000  1
  H  H95  1  0.09040000  0.39380000  0.90960000  1
  H  H96  1  0.09450000  0.90550000  0.29210000  1
  H  H97  1  0.09040000  0.90960000  0.39380000  1
  H  H98  1  0.70790000  0.90550000  0.29210000  1
  H  H99  1  0.60620000  0.90960000  0.39380000  1
  H  H100  1  0.70790000  0.29210000  0.90550000  1
  H  H101  1  0.60620000  0.39380000  0.90960000  1
  H  H102  1  0.29210000  0.09450000  0.70790000  1
  H  H103  1  0.39380000  0.09040000  0.60620000  1
  H  H104  1  0.29210000  0.70790000  0.09450000  1
  H  H105  1  0.39380000  0.60620000  0.09040000  1
  H  H106  1  0.90550000  0.70790000  0.09450000  1
  H  H107  1  0.90960000  0.60620000  0.09040000  1
  H  H108  1  0.90550000  0.09450000  0.70790000  1
  H  H109  1  0.90960000  0.09040000  0.60620000  1
  H  H110  1  0.29210000  0.90550000  0.09450000  1
  H  H111  1  0.39380000  0.90960000  0.09040000  1
  H  H112  1  0.90550000  0.29210000  0.70790000  1
  H  H113  1  0.90960000  0.39380000  0.60620000  1
  H  H114  1  0.29210000  0.09450000  0.90550000  1
  H  H115  1  0.39380000  0.09040000  0.90960000  1
  H  H116  1  0.09450000  0.70790000  0.29210000  1
  H  H117  1  0.09040000  0.60620000  0.39380000  1
  H  H118  1  0.70790000  0.90550000  0.09450000  1
  H  H119  1  0.60620000  0.90960000  0.09040000  1
  H  H120  1  0.70790000  0.09450000  0.90550000  1
  H  H121  1  0.60620000  0.09040000  0.90960000  1
  H  H122  1  0.09450000  0.29210000  0.70790000  1
  H  H123  1  0.09040000  0.39380000  0.60620000  1
  H  H124  1  0.90550000  0.70790000  0.29210000  1
  H  H125  1  0.90960000  0.60620000  0.39380000  1
  N  N126  1  0.00000000  1.00000000  0.40960000  1
  N  N127  1  0.59040000  0.00000000  0.40960000  1
  N  N128  1  0.59040000  0.40960000  0.00000000  1
  N  N129  1  0.00000000  0.40960000  0.00000000  1
  N  N130  1  1.00000000  1.00000000  0.59040000  1
  N  N131  1  0.40960000  0.00000000  0.59040000  1
  N  N132  1  0.40960000  0.59040000  0.00000000  1
  N  N133  1  0.00000000  0.59040000  1.00000000  1
  N  N134  1  0.40960000  1.00000000  1.00000000  1
  N  N135  1  1.00000000  0.40960000  0.59040000  1
  N  N136  1  0.00000000  0.59040000  0.40960000  1
  N  N137  1  0.59040000  1.00000000  1.00000000  1
  O  O138  1  0.94320000  0.05680000  0.18280000  1
  O  O139  1  0.87700000  0.04100000  0.04100000  1
  O  O140  1  0.81720000  0.05680000  0.18280000  1
  O  O141  1  0.95900000  0.12300000  0.95900000  1
  O  O142  1  0.81720000  0.18280000  0.05680000  1
  O  O143  1  0.04100000  0.04100000  0.04100000  1
  O  O144  1  0.94320000  0.18280000  0.05680000  1
  O  O145  1  0.95900000  0.95900000  0.12300000  1
  O  O146  1  0.05680000  0.94320000  0.81720000  1
  O  O147  1  0.04100000  0.87700000  0.04100000  1
  O  O148  1  0.18280000  0.94320000  0.81720000  1
  O  O149  1  0.95900000  0.95900000  0.95900000  1
  O  O150  1  0.18280000  0.81720000  0.94320000  1
  O  O151  1  0.04100000  0.04100000  0.87700000  1
  O  O152  1  0.05680000  0.81720000  0.94320000  1
  O  O153  1  0.12300000  0.95900000  0.95900000  1
  O  O154  1  0.05680000  0.18280000  0.94320000  1
  O  O155  1  0.05680000  0.94320000  0.18280000  1
  O  O156  1  0.81720000  0.94320000  0.18280000  1
  O  O157  1  0.81720000  0.18280000  0.94320000  1
  O  O158  1  0.18280000  0.05680000  0.81720000  1
  O  O159  1  0.18280000  0.81720000  0.05680000  1
  O  O160  1  0.94320000  0.81720000  0.05680000  1
  O  O161  1  0.94320000  0.05680000  0.81720000  1
  O  O162  1  0.18280000  0.94320000  0.05680000  1
  O  O163  1  0.94320000  0.18280000  0.81720000  1
  O  O164  1  0.18280000  0.05680000  0.94320000  1
  O  O165  1  0.05680000  0.81720000  0.18280000  1
  O  O166  1  0.81720000  0.94320000  0.05680000  1
  O  O167  1  0.81720000  0.05680000  0.94320000  1
  O  O168  1  0.05680000  0.18280000  0.81720000  1
  O  O169  1  0.94320000  0.81720000  0.18280000  1
  Zr  Zr170  1  0.91842000  0.08158000  0.08158000  1
  Zr  Zr171  1  0.08158000  0.91842000  0.91842000  1
  Zr  Zr172  1  0.08158000  0.08158000  0.91842000  1
  Zr  Zr173  1  0.08158000  0.91842000  0.08158000  1
  Zr  Zr174  1  0.91842000  0.91842000  0.08158000  1
  Zr  Zr175  1  0.91842000  0.08158000  0.91842000  1
