# generated using pymatgen
data_Zr6Fe3H48C72N12(Cl3O16)2
_symmetry_space_group_name_H-M   'P 1'
_cell_length_a   15.49500000
_cell_length_b   15.49500000
_cell_length_c   15.49500000
_cell_angle_alpha   90.00000000
_cell_angle_beta   90.00000000
_cell_angle_gamma   90.00000000
_symmetry_Int_Tables_number   1
_chemical_formula_structural   Zr6Fe3H48C72N12(Cl3O16)2
_chemical_formula_sum   'Zr6 Fe3 H48 C72 N12 Cl6 O32'
_cell_volume   3720.27241237
_cell_formula_units_Z   1
loop_
 _symmetry_equiv_pos_site_id
 _symmetry_equiv_pos_as_xyz
  1  'x, y, z'
loop_
 _atom_site_type_symbol
 _atom_site_label
 _atom_site_symmetry_multiplicity
 _atom_site_fract_x
 _atom_site_fract_y
 _atom_site_fract_z
 _atom_site_occupancy
  Zr  Zr0  1  0.50000000  0.34038000  0.50000000  1
  Zr  Zr1  1  0.50000000  0.65962000  0.50000000  1
  Zr  Zr2  1  0.50000000  0.50000000  0.34038000  1
  Zr  Zr3  1  0.50000000  0.50000000  0.65962000  1
  Zr  Zr4  1  0.34038000  0.50000000  0.50000000  1
  Zr  Zr5  1  0.65962000  0.50000000  0.50000000  1
  Fe  Fe6  1  0.50000000  0.00000000  0.00000000  1
  Fe  Fe7  1  0.00000000  0.50000000  0.00000000  1
  Fe  Fe8  1  0.00000000  0.00000000  0.50000000  1
  H  H9  1  0.57960000  0.14350000  0.70970000  1
  H  H10  1  0.58260000  0.04250000  0.81990000  1
  H  H11  1  0.70970000  0.57960000  0.14350000  1
  H  H12  1  0.81990000  0.58260000  0.04250000  1
  H  H13  1  0.70970000  0.42040000  0.85650000  1
  H  H14  1  0.81990000  0.41740000  0.95750000  1
  H  H15  1  0.29030000  0.42040000  0.14350000  1
  H  H16  1  0.18010000  0.41740000  0.04250000  1
  H  H17  1  0.29030000  0.57960000  0.85650000  1
  H  H18  1  0.18010000  0.58260000  0.95750000  1
  H  H19  1  0.14350000  0.70970000  0.57960000  1
  H  H20  1  0.04250000  0.81990000  0.58260000  1
  H  H21  1  0.14350000  0.29030000  0.42040000  1
  H  H22  1  0.04250000  0.18010000  0.41740000  1
  H  H23  1  0.14350000  0.57960000  0.29030000  1
  H  H24  1  0.04250000  0.58260000  0.18010000  1
  H  H25  1  0.85650000  0.42040000  0.29030000  1
  H  H26  1  0.95750000  0.41740000  0.18010000  1
  H  H27  1  0.14350000  0.42040000  0.70970000  1
  H  H28  1  0.04250000  0.41740000  0.81990000  1
  H  H29  1  0.85650000  0.57960000  0.70970000  1
  H  H30  1  0.95750000  0.58260000  0.81990000  1
  H  H31  1  0.42040000  0.29030000  0.85650000  1
  H  H32  1  0.41740000  0.18010000  0.95750000  1
  H  H33  1  0.29030000  0.14350000  0.57960000  1
  H  H34  1  0.18010000  0.04250000  0.58260000  1
  H  H35  1  0.29030000  0.85650000  0.42040000  1
  H  H36  1  0.18010000  0.95750000  0.41740000  1
  H  H37  1  0.42040000  0.85650000  0.29030000  1
  H  H38  1  0.41740000  0.95750000  0.18010000  1
  H  H39  1  0.57960000  0.14350000  0.29030000  1
  H  H40  1  0.58260000  0.04250000  0.18010000  1
  H  H41  1  0.57960000  0.85650000  0.70970000  1
  H  H42  1  0.58260000  0.95750000  0.81990000  1
  H  H43  1  0.85650000  0.29030000  0.42040000  1
  H  H44  1  0.95750000  0.18010000  0.41740000  1
  H  H45  1  0.85650000  0.70970000  0.57960000  1
  H  H46  1  0.95750000  0.81990000  0.58260000  1
  H  H47  1  0.42040000  0.29030000  0.14350000  1
  H  H48  1  0.41740000  0.18010000  0.04250000  1
  H  H49  1  0.57960000  0.70970000  0.14350000  1
  H  H50  1  0.58260000  0.81990000  0.04250000  1
  H  H51  1  0.42040000  0.70970000  0.85650000  1
  H  H52  1  0.41740000  0.81990000  0.95750000  1
  H  H53  1  0.70970000  0.85650000  0.42040000  1
  H  H54  1  0.81990000  0.95750000  0.41740000  1
  H  H55  1  0.70970000  0.14350000  0.57960000  1
  H  H56  1  0.81990000  0.04250000  0.58260000  1
  C  C57  1  0.54720000  0.15320000  0.76160000  1
  C  C58  1  0.54720000  0.09290000  0.82600000  1
  C  C59  1  0.76160000  0.54720000  0.15320000  1
  C  C60  1  0.82600000  0.54720000  0.09290000  1
  C  C61  1  0.76160000  0.45280000  0.84680000  1
  C  C62  1  0.82600000  0.45280000  0.90710000  1
  C  C63  1  0.23840000  0.45280000  0.15320000  1
  C  C64  1  0.17400000  0.45280000  0.09290000  1
  C  C65  1  0.23840000  0.54720000  0.84680000  1
  C  C66  1  0.17400000  0.54720000  0.90710000  1
  C  C67  1  0.15320000  0.76160000  0.54720000  1
  C  C68  1  0.09290000  0.82600000  0.54720000  1
  C  C69  1  0.15320000  0.23840000  0.45280000  1
  C  C70  1  0.09290000  0.17400000  0.45280000  1
  C  C71  1  0.15320000  0.54720000  0.23840000  1
  C  C72  1  0.09290000  0.54720000  0.17400000  1
  C  C73  1  0.84680000  0.45280000  0.23840000  1
  C  C74  1  0.90710000  0.45280000  0.17400000  1
  C  C75  1  0.15320000  0.45280000  0.76160000  1
  C  C76  1  0.09290000  0.45280000  0.82600000  1
  C  C77  1  0.84680000  0.54720000  0.76160000  1
  C  C78  1  0.90710000  0.54720000  0.82600000  1
  C  C79  1  0.45280000  0.23840000  0.84680000  1
  C  C80  1  0.45280000  0.17400000  0.90710000  1
  C  C81  1  0.23840000  0.15320000  0.54720000  1
  C  C82  1  0.17400000  0.09290000  0.54720000  1
  C  C83  1  0.23840000  0.84680000  0.45280000  1
  C  C84  1  0.17400000  0.90710000  0.45280000  1
  C  C85  1  0.45280000  0.84680000  0.23840000  1
  C  C86  1  0.45280000  0.90710000  0.17400000  1
  C  C87  1  0.54720000  0.15320000  0.23840000  1
  C  C88  1  0.54720000  0.09290000  0.17400000  1
  C  C89  1  0.54720000  0.84680000  0.76160000  1
  C  C90  1  0.54720000  0.90710000  0.82600000  1
  C  C91  1  0.84680000  0.23840000  0.45280000  1
  C  C92  1  0.90710000  0.17400000  0.45280000  1
  C  C93  1  0.84680000  0.76160000  0.54720000  1
  C  C94  1  0.90710000  0.82600000  0.54720000  1
  C  C95  1  0.45280000  0.23840000  0.15320000  1
  C  C96  1  0.45280000  0.17400000  0.09290000  1
  C  C97  1  0.54720000  0.76160000  0.15320000  1
  C  C98  1  0.54720000  0.82600000  0.09290000  1
  C  C99  1  0.45280000  0.76160000  0.84680000  1
  C  C100  1  0.45280000  0.82600000  0.90710000  1
  C  C101  1  0.76160000  0.84680000  0.45280000  1
  C  C102  1  0.82600000  0.90710000  0.45280000  1
  C  C103  1  0.76160000  0.15320000  0.54720000  1
  C  C104  1  0.82600000  0.09290000  0.54720000  1
  C  C105  1  0.50000000  0.29660000  0.70340000  1
  C  C106  1  0.50000000  0.22840000  0.77160000  1
  C  C107  1  0.50000000  0.70340000  0.70340000  1
  C  C108  1  0.50000000  0.77160000  0.77160000  1
  C  C109  1  0.50000000  0.29660000  0.29660000  1
  C  C110  1  0.50000000  0.22840000  0.22840000  1
  C  C111  1  0.50000000  0.70340000  0.29660000  1
  C  C112  1  0.50000000  0.77160000  0.22840000  1
  C  C113  1  0.70340000  0.50000000  0.29660000  1
  C  C114  1  0.77160000  0.50000000  0.22840000  1
  C  C115  1  0.70340000  0.50000000  0.70340000  1
  C  C116  1  0.77160000  0.50000000  0.77160000  1
  C  C117  1  0.29660000  0.50000000  0.29660000  1
  C  C118  1  0.22840000  0.50000000  0.22840000  1
  C  C119  1  0.29660000  0.50000000  0.70340000  1
  C  C120  1  0.22840000  0.50000000  0.77160000  1
  C  C121  1  0.29660000  0.70340000  0.50000000  1
  C  C122  1  0.22840000  0.77160000  0.50000000  1
  C  C123  1  0.70340000  0.70340000  0.50000000  1
  C  C124  1  0.77160000  0.77160000  0.50000000  1
  C  C125  1  0.29660000  0.29660000  0.50000000  1
  C  C126  1  0.22840000  0.22840000  0.50000000  1
  C  C127  1  0.70340000  0.29660000  0.50000000  1
  C  C128  1  0.77160000  0.22840000  0.50000000  1
  N  N129  1  0.50000000  0.10180000  0.89820000  1
  N  N130  1  0.50000000  0.89820000  0.89820000  1
  N  N131  1  0.50000000  0.10180000  0.10180000  1
  N  N132  1  0.50000000  0.89820000  0.10180000  1
  N  N133  1  0.89820000  0.50000000  0.10180000  1
  N  N134  1  0.89820000  0.50000000  0.89820000  1
  N  N135  1  0.10180000  0.50000000  0.10180000  1
  N  N136  1  0.10180000  0.50000000  0.89820000  1
  N  N137  1  0.10180000  0.89820000  0.50000000  1
  N  N138  1  0.89820000  0.89820000  0.50000000  1
  N  N139  1  0.10180000  0.10180000  0.50000000  1
  N  N140  1  0.89820000  0.10180000  0.50000000  1
  Cl  Cl141  1  0.34260000  0.00000000  0.00000000  1
  Cl  Cl142  1  0.65740000  0.00000000  0.00000000  1
  Cl  Cl143  1  0.00000000  0.34260000  0.00000000  1
  Cl  Cl144  1  0.00000000  0.65740000  0.00000000  1
  Cl  Cl145  1  0.00000000  0.00000000  0.34260000  1
  Cl  Cl146  1  0.00000000  0.00000000  0.65740000  1
  O  O147  1  0.41790000  0.41790000  0.41790000  1
  O  O148  1  0.58210000  0.58210000  0.41790000  1
  O  O149  1  0.58210000  0.41790000  0.58210000  1
  O  O150  1  0.41790000  0.58210000  0.58210000  1
  O  O151  1  0.41790000  0.41790000  0.58210000  1
  O  O152  1  0.58210000  0.58210000  0.58210000  1
  O  O153  1  0.41790000  0.58210000  0.41790000  1
  O  O154  1  0.58210000  0.41790000  0.41790000  1
  O  O155  1  0.50000000  0.26960000  0.62550000  1
  O  O156  1  0.50000000  0.73040000  0.62550000  1
  O  O157  1  0.50000000  0.26960000  0.37450000  1
  O  O158  1  0.50000000  0.73040000  0.37450000  1
  O  O159  1  0.62550000  0.50000000  0.26960000  1
  O  O160  1  0.62550000  0.50000000  0.73040000  1
  O  O161  1  0.37450000  0.50000000  0.26960000  1
  O  O162  1  0.37450000  0.50000000  0.73040000  1
  O  O163  1  0.26960000  0.62550000  0.50000000  1
  O  O164  1  0.73040000  0.62550000  0.50000000  1
  O  O165  1  0.26960000  0.37450000  0.50000000  1
  O  O166  1  0.73040000  0.37450000  0.50000000  1
  O  O167  1  0.26960000  0.50000000  0.37450000  1
  O  O168  1  0.73040000  0.50000000  0.37450000  1
  O  O169  1  0.26960000  0.50000000  0.62550000  1
  O  O170  1  0.73040000  0.50000000  0.62550000  1
  O  O171  1  0.50000000  0.62550000  0.73040000  1
  O  O172  1  0.50000000  0.62550000  0.26960000  1
  O  O173  1  0.50000000  0.37450000  0.73040000  1
  O  O174  1  0.50000000  0.37450000  0.26960000  1
  O  O175  1  0.62550000  0.26960000  0.50000000  1
  O  O176  1  0.62550000  0.73040000  0.50000000  1
  O  O177  1  0.37450000  0.26960000  0.50000000  1
  O  O178  1  0.37450000  0.73040000  0.50000000  1
