# generated using pymatgen
data_Zr6Fe2H43C73S6N15O32
_symmetry_space_group_name_H-M   'P 1'
_cell_length_a   15.47400000
_cell_length_b   15.47400000
_cell_length_c   15.47400000
_cell_angle_alpha   90.00000000
_cell_angle_beta   90.00000000
_cell_angle_gamma   90.00000000
_symmetry_Int_Tables_number   1
_chemical_formula_structural   Zr6Fe2H43C73S6N15O32
_chemical_formula_sum   'Zr6 Fe2 H43 C73 S6 N15 O32'
_cell_volume   3705.16691642
_cell_formula_units_Z   1
loop_
 _symmetry_equiv_pos_site_id
 _symmetry_equiv_pos_as_xyz
  1  'x, y, z'
loop_
 _atom_site_type_symbol
 _atom_site_label
 _atom_site_symmetry_multiplicity
 _atom_site_fract_x
 _atom_site_fract_y
 _atom_site_fract_z
 _atom_site_occupancy
  Zr  Zr0  1  0.33998000  0.50000000  0.50000000  1
  Zr  Zr1  1  0.66002000  0.50000000  0.50000000  1
  Zr  Zr2  1  0.50000000  0.33998000  0.50000000  1
  Zr  Zr3  1  0.50000000  0.66002000  0.50000000  1
  Zr  Zr4  1  0.50000000  0.50000000  0.33998000  1
  Zr  Zr5  1  0.50000000  0.50000000  0.66002000  1
  Fe  Fe6  1  0.50000000  0.00000000  0.00000000  1
  Fe  Fe7  1  0.00000000  0.50000000  0.00000000  1
  H  H8  1  0.14330000  0.29250000  0.42590000  1
  H  H9  1  0.04460000  0.17590000  0.40930000  1
  H  H10  1  0.85670000  0.29250000  0.57410000  1
  H  H11  1  0.14330000  0.70750000  0.57410000  1
  H  H12  1  0.04460000  0.82410000  0.59070000  1
  H  H13  1  0.57410000  0.85670000  0.29250000  1
  H  H14  1  0.59070000  0.95540000  0.17590000  1
  H  H15  1  0.57410000  0.14330000  0.70750000  1
  H  H16  1  0.59070000  0.04460000  0.82410000  1
  H  H17  1  0.70750000  0.42590000  0.85670000  1
  H  H18  1  0.82410000  0.40930000  0.95540000  1
  H  H19  1  0.29250000  0.57410000  0.85670000  1
  H  H20  1  0.17590000  0.59070000  0.95540000  1
  H  H21  1  0.29250000  0.14330000  0.57410000  1
  H  H22  1  0.17590000  0.04460000  0.59070000  1
  H  H23  1  0.29250000  0.85670000  0.42590000  1
  H  H24  1  0.17590000  0.95540000  0.40930000  1
  H  H25  1  0.70750000  0.14330000  0.42590000  1
  H  H26  1  0.82410000  0.04460000  0.40930000  1
  H  H27  1  0.14330000  0.42590000  0.70750000  1
  H  H28  1  0.04460000  0.40930000  0.82410000  1
  H  H29  1  0.85670000  0.57410000  0.70750000  1
  H  H30  1  0.95540000  0.59070000  0.82410000  1
  H  H31  1  0.42590000  0.29250000  0.85670000  1
  H  H32  1  0.40930000  0.17590000  0.95540000  1
  H  H33  1  0.42590000  0.70750000  0.14330000  1
  H  H34  1  0.40930000  0.82410000  0.04460000  1
  H  H35  1  0.85670000  0.70750000  0.57410000  1
  H  H36  1  0.95540000  0.82410000  0.59070000  1
  H  H37  1  0.57410000  0.85670000  0.70750000  1
  H  H38  1  0.59070000  0.95540000  0.82410000  1
  H  H39  1  0.57410000  0.14330000  0.29250000  1
  H  H40  1  0.59070000  0.04460000  0.17590000  1
  H  H41  1  0.29250000  0.57410000  0.14330000  1
  H  H42  1  0.17590000  0.59070000  0.04460000  1
  H  H43  1  0.70750000  0.85670000  0.42590000  1
  H  H44  1  0.82410000  0.95540000  0.40930000  1
  H  H45  1  0.14330000  0.42590000  0.29250000  1
  H  H46  1  0.04460000  0.40930000  0.17590000  1
  H  H47  1  0.42590000  0.70750000  0.85670000  1
  H  H48  1  0.40930000  0.82410000  0.95540000  1
  H  H49  1  0.42590000  0.29250000  0.14330000  1
  H  H50  1  0.40930000  0.17590000  0.04460000  1
  C  C51  1  0.15450000  0.23830000  0.45380000  1
  C  C52  1  0.09220000  0.17230000  0.44880000  1
  C  C53  1  0.84550000  0.23830000  0.54620000  1
  C  C54  1  0.90780000  0.17230000  0.55120000  1
  C  C55  1  0.15450000  0.76170000  0.54620000  1
  C  C56  1  0.09220000  0.82770000  0.55120000  1
  C  C57  1  0.54620000  0.84550000  0.23830000  1
  C  C58  1  0.55120000  0.90780000  0.17230000  1
  C  C59  1  0.54620000  0.15450000  0.76170000  1
  C  C60  1  0.55120000  0.09220000  0.82770000  1
  C  C61  1  0.76170000  0.45380000  0.84550000  1
  C  C62  1  0.82770000  0.44880000  0.90780000  1
  C  C63  1  0.23830000  0.54620000  0.84550000  1
  C  C64  1  0.17230000  0.55120000  0.90780000  1
  C  C65  1  0.23830000  0.15450000  0.54620000  1
  C  C66  1  0.17230000  0.09220000  0.55120000  1
  C  C67  1  0.23830000  0.84550000  0.45380000  1
  C  C68  1  0.17230000  0.90780000  0.44880000  1
  C  C69  1  0.76170000  0.15450000  0.45380000  1
  C  C70  1  0.82770000  0.09220000  0.44880000  1
  C  C71  1  0.15450000  0.45380000  0.76170000  1
  C  C72  1  0.09220000  0.44880000  0.82770000  1
  C  C73  1  0.84550000  0.54620000  0.76170000  1
  C  C74  1  0.90780000  0.55120000  0.82770000  1
  C  C75  1  0.45380000  0.23830000  0.84550000  1
  C  C76  1  0.44880000  0.17230000  0.90780000  1
  C  C77  1  0.45380000  0.76170000  0.15450000  1
  C  C78  1  0.44880000  0.82770000  0.09220000  1
  C  C79  1  0.84550000  0.76170000  0.54620000  1
  C  C80  1  0.90780000  0.82770000  0.55120000  1
  C  C81  1  0.54620000  0.84550000  0.76170000  1
  C  C82  1  0.55120000  0.90780000  0.82770000  1
  C  C83  1  0.54620000  0.15450000  0.23830000  1
  C  C84  1  0.55120000  0.09220000  0.17230000  1
  C  C85  1  0.23830000  0.54620000  0.15450000  1
  C  C86  1  0.17230000  0.55120000  0.09220000  1
  C  C87  1  0.76170000  0.84550000  0.45380000  1
  C  C88  1  0.82770000  0.90780000  0.44880000  1
  C  C89  1  0.15450000  0.45380000  0.23830000  1
  C  C90  1  0.09220000  0.44880000  0.17230000  1
  C  C91  1  0.45380000  0.76170000  0.84550000  1
  C  C92  1  0.44880000  0.82770000  0.90780000  1
  C  C93  1  0.45380000  0.23830000  0.15450000  1
  C  C94  1  0.44880000  0.17230000  0.09220000  1
  C  C95  1  0.29640000  0.29640000  0.50000000  1
  C  C96  1  0.22890000  0.22890000  0.50000000  1
  C  C97  1  0.70360000  0.70360000  0.50000000  1
  C  C98  1  0.77110000  0.77110000  0.50000000  1
  C  C99  1  0.70360000  0.29640000  0.50000000  1
  C  C100  1  0.77110000  0.22890000  0.50000000  1
  C  C101  1  0.29640000  0.70360000  0.50000000  1
  C  C102  1  0.22890000  0.77110000  0.50000000  1
  C  C103  1  0.50000000  0.29640000  0.29640000  1
  C  C104  1  0.50000000  0.22890000  0.22890000  1
  C  C105  1  0.50000000  0.70360000  0.70360000  1
  C  C106  1  0.50000000  0.77110000  0.77110000  1
  C  C107  1  0.50000000  0.70360000  0.29640000  1
  C  C108  1  0.50000000  0.77110000  0.22890000  1
  C  C109  1  0.50000000  0.29640000  0.70360000  1
  C  C110  1  0.50000000  0.22890000  0.77110000  1
  C  C111  1  0.29640000  0.50000000  0.29640000  1
  C  C112  1  0.22890000  0.50000000  0.22890000  1
  C  C113  1  0.70360000  0.50000000  0.70360000  1
  C  C114  1  0.77110000  0.50000000  0.77110000  1
  C  C115  1  0.29640000  0.50000000  0.70360000  1
  C  C116  1  0.22890000  0.50000000  0.77110000  1
  C  C117  1  0.70360000  0.50000000  0.29640000  1
  C  C118  1  0.00000000  0.00000000  0.29700000  1
  C  C119  1  0.00000000  0.00000000  0.70300000  1
  C  C120  1  0.29700000  0.00000000  0.00000000  1
  C  C121  1  0.70300000  0.00000000  0.00000000  1
  C  C122  1  0.00000000  0.29700000  0.00000000  1
  C  C123  1  0.00000000  0.70300000  0.00000000  1
  S  S124  1  0.00000000  0.00000000  0.18980000  1
  S  S125  1  0.00000000  0.00000000  0.81020000  1
  S  S126  1  0.18980000  0.00000000  0.00000000  1
  S  S127  1  0.81020000  0.00000000  0.00000000  1
  S  S128  1  0.00000000  0.18980000  0.00000000  1
  S  S129  1  0.00000000  0.81020000  0.00000000  1
  N  N130  1  0.10240000  0.10240000  0.50000000  1
  N  N131  1  0.89760000  0.89760000  0.50000000  1
  N  N132  1  0.89760000  0.10240000  0.50000000  1
  N  N133  1  0.10240000  0.89760000  0.50000000  1
  N  N134  1  0.50000000  0.10240000  0.10240000  1
  N  N135  1  0.50000000  0.89760000  0.89760000  1
  N  N136  1  0.50000000  0.89760000  0.10240000  1
  N  N137  1  0.50000000  0.10240000  0.89760000  1
  N  N138  1  0.10240000  0.50000000  0.10240000  1
  N  N139  1  0.89760000  0.50000000  0.89760000  1
  N  N140  1  0.10240000  0.50000000  0.89760000  1
  N  N141  1  0.00000000  0.00000000  0.37110000  1
  N  N142  1  0.37110000  0.00000000  0.00000000  1
  N  N143  1  0.00000000  0.37110000  0.00000000  1
  N  N144  1  0.00000000  0.62890000  0.00000000  1
  O  O145  1  0.41970000  0.41970000  0.41970000  1
  O  O146  1  0.58030000  0.58030000  0.41970000  1
  O  O147  1  0.58030000  0.41970000  0.58030000  1
  O  O148  1  0.41970000  0.58030000  0.58030000  1
  O  O149  1  0.41970000  0.41970000  0.58030000  1
  O  O150  1  0.58030000  0.58030000  0.58030000  1
  O  O151  1  0.41970000  0.58030000  0.41970000  1
  O  O152  1  0.58030000  0.41970000  0.41970000  1
  O  O153  1  0.26710000  0.37600000  0.50000000  1
  O  O154  1  0.73290000  0.62400000  0.50000000  1
  O  O155  1  0.73290000  0.37600000  0.50000000  1
  O  O156  1  0.26710000  0.62400000  0.50000000  1
  O  O157  1  0.50000000  0.26710000  0.37600000  1
  O  O158  1  0.50000000  0.73290000  0.62400000  1
  O  O159  1  0.50000000  0.73290000  0.37600000  1
  O  O160  1  0.50000000  0.26710000  0.62400000  1
  O  O161  1  0.37600000  0.50000000  0.26710000  1
  O  O162  1  0.62400000  0.50000000  0.73290000  1
  O  O163  1  0.37600000  0.50000000  0.73290000  1
  O  O164  1  0.62400000  0.50000000  0.26710000  1
  O  O165  1  0.37600000  0.26710000  0.50000000  1
  O  O166  1  0.62400000  0.73290000  0.50000000  1
  O  O167  1  0.37600000  0.73290000  0.50000000  1
  O  O168  1  0.62400000  0.26710000  0.50000000  1
  O  O169  1  0.26710000  0.50000000  0.62400000  1
  O  O170  1  0.73290000  0.50000000  0.37600000  1
  O  O171  1  0.73290000  0.50000000  0.62400000  1
  O  O172  1  0.26710000  0.50000000  0.37600000  1
  O  O173  1  0.50000000  0.37600000  0.73290000  1
  O  O174  1  0.50000000  0.62400000  0.26710000  1
  O  O175  1  0.50000000  0.37600000  0.26710000  1
  O  O176  1  0.50000000  0.62400000  0.73290000  1
