# generated using pymatgen
data_Zr(CO2)6
_symmetry_space_group_name_H-M   'P 1'
_cell_length_a   9.59360000
_cell_length_b   11.35690000
_cell_length_c   13.97920000
_cell_angle_alpha   90.00000000
_cell_angle_beta   108.02300000
_cell_angle_gamma   90.00000000
_symmetry_Int_Tables_number   1
_chemical_formula_structural   Zr(CO2)6
_chemical_formula_sum   'Zr4 C24 O48'
_cell_volume   1448.34948178
_cell_formula_units_Z   4
loop_
 _symmetry_equiv_pos_site_id
 _symmetry_equiv_pos_as_xyz
  1  'x, y, z'
loop_
 _atom_site_type_symbol
 _atom_site_label
 _atom_site_symmetry_multiplicity
 _atom_site_fract_x
 _atom_site_fract_y
 _atom_site_fract_z
 _atom_site_occupancy
  Zr  Zr0  1  0.40531000  0.61472000  0.23939000  1.0
  Zr  Zr1  1  0.59469000  0.11472000  0.26061000  1.0
  Zr  Zr2  1  0.59469000  0.38528000  0.76061000  1.0
  Zr  Zr3  1  0.40531000  0.88528000  0.73939000  1.0
  C  C4  1  0.58610000  0.38600000  0.26380000  1
  C  C5  1  0.41390000  0.88600000  0.23620000  1
  C  C6  1  0.41390000  0.61400000  0.73620000  1
  C  C7  1  0.58610000  0.11400000  0.76380000  1
  C  C8  1  0.42900000  0.34700000  0.24710000  1
  C  C9  1  0.57100000  0.84700000  0.25290000  1
  C  C10  1  0.57100000  0.65300000  0.75290000  1
  C  C11  1  0.42900000  0.15300000  0.74710000  1
  C  C12  1  0.29330000  0.61420000  0.42140000  1
  C  C13  1  0.70670000  0.11420000  0.07860000  1
  C  C14  1  0.70670000  0.38580000  0.57860000  1
  C  C15  1  0.29330000  0.88580000  0.92140000  1
  C  C16  1  0.46130000  0.62750000  0.46480000  1
  C  C17  1  0.53870000  0.12750000  0.03520000  1
  C  C18  1  0.53870000  0.37250000  0.53520000  1
  C  C19  1  0.46130000  0.87250000  0.96480000  1
  C  C20  1  0.17620000  0.61750000  0.03430000  1
  C  C21  1  0.82380000  0.11750000  0.46570000  1
  C  C22  1  0.82380000  0.38250000  0.96570000  1
  C  C23  1  0.17620000  0.88250000  0.53430000  1
  C  C24  1  0.32530000  0.61630000  0.01350000  1
  C  C25  1  0.67470000  0.11630000  0.48650000  1
  C  C26  1  0.67470000  0.38370000  0.98650000  1
  C  C27  1  0.32530000  0.88370000  0.51350000  1
  O  O28  1  0.60770000  0.49360000  0.26360000  1
  O  O29  1  0.39230000  0.99360000  0.23640000  1
  O  O30  1  0.39230000  0.50640000  0.73640000  1
  O  O31  1  0.60770000  0.00640000  0.76360000  1
  O  O32  1  0.33470000  0.42770000  0.23140000  1
  O  O33  1  0.66530000  0.92770000  0.26860000  1
  O  O34  1  0.66530000  0.57230000  0.76860000  1
  O  O35  1  0.33470000  0.07230000  0.73140000  1
  O  O36  1  0.24960000  0.61160000  0.32320000  1
  O  O37  1  0.75040000  0.11160000  0.17680000  1
  O  O38  1  0.75040000  0.38840000  0.67680000  1
  O  O39  1  0.24960000  0.88840000  0.82320000  1
  O  O40  1  0.21420000  0.60730000  0.47410000  1
  O  O41  1  0.78580000  0.10730000  0.02590000  1
  O  O42  1  0.78580000  0.39270000  0.52590000  1
  O  O43  1  0.21420000  0.89270000  0.97410000  1
  O  O44  1  0.52410000  0.62830000  0.39550000  1
  O  O45  1  0.47590000  0.12830000  0.10450000  1
  O  O46  1  0.47590000  0.37170000  0.60450000  1
  O  O47  1  0.52410000  0.87170000  0.89550000  1
  O  O48  1  0.52420000  0.63610000  0.55470000  1
  O  O49  1  0.47580000  0.13610000  0.94530000  1
  O  O50  1  0.47580000  0.36390000  0.44530000  1
  O  O51  1  0.52420000  0.86390000  0.05470000  1
  O  O52  1  0.18690000  0.61490000  0.12800000  1
  O  O53  1  0.81310000  0.11490000  0.37200000  1
  O  O54  1  0.81310000  0.38510000  0.87200000  1
  O  O55  1  0.18690000  0.88510000  0.62800000  1
  O  O56  1  0.06190000  0.62090000  0.96420000  1
  O  O57  1  0.93810000  0.12090000  0.53580000  1
  O  O58  1  0.93810000  0.37910000  0.03580000  1
  O  O59  1  0.06190000  0.87910000  0.46420000  1
  O  O60  1  0.43490000  0.60680000  0.09510000  1
  O  O61  1  0.56510000  0.10680000  0.40490000  1
  O  O62  1  0.56510000  0.39320000  0.90490000  1
  O  O63  1  0.43490000  0.89320000  0.59510000  1
  O  O64  1  0.33120000  0.62380000  0.92850000  1
  O  O65  1  0.66880000  0.12380000  0.57150000  1
  O  O66  1  0.66880000  0.37620000  0.07150000  1
  O  O67  1  0.33120000  0.87620000  0.42850000  1
  O  O68  1  0.67640000  0.30250000  0.27520000  1.0
  O  O69  1  0.32360000  0.80250000  0.22480000  1.0
  O  O70  1  0.32360000  0.69750000  0.72480000  1.0
  O  O71  1  0.67640000  0.19750000  0.77520000  1.0
  O  O72  1  0.40560000  0.23900000  0.24810000  1.0
  O  O73  1  0.59440000  0.73900000  0.25190000  1.0
  O  O74  1  0.59440000  0.76100000  0.75190000  1.0
  O  O75  1  0.40560000  0.26100000  0.74810000  1.0
