# generated using pymatgen
data_Zr3H12C24N3O16
_symmetry_space_group_name_H-M   'P 1'
_cell_length_a   39.29293388
_cell_length_b   39.29293388
_cell_length_c   39.29293388
_cell_angle_alpha   60.00000000
_cell_angle_beta   60.00000000
_cell_angle_gamma   60.00000000
_symmetry_Int_Tables_number   1
_chemical_formula_structural   Zr3H12C24N3O16
_chemical_formula_sum   'Zr24 H96 C192 N24 O128'
_cell_volume   42897.14357879
_cell_formula_units_Z   8
loop_
 _symmetry_equiv_pos_site_id
 _symmetry_equiv_pos_as_xyz
  1  'x, y, z'
loop_
 _atom_site_type_symbol
 _atom_site_label
 _atom_site_symmetry_multiplicity
 _atom_site_fract_x
 _atom_site_fract_y
 _atom_site_fract_z
 _atom_site_occupancy
  C  C0  1  0.45056000  0.20320000  0.26506000  1
  C  C1  1  0.41147000  0.22549000  0.28733000  1
  C  C2  1  0.80153000  0.98609000  0.04795000  1
  C  C3  1  0.84062000  0.96382000  0.02566000  1
  C  C4  1  0.50995000  0.19791000  0.19791000  1
  C  C5  1  0.47032000  0.22254000  0.22254000  1
  C  C6  1  0.39115000  0.26765000  0.26765000  1
  C  C7  1  0.34829000  0.29035000  0.29035000  1
  C  C8  1  0.74214000  0.05324000  0.05324000  1
  C  C9  1  0.78177000  0.02861000  0.02861000  1
  C  C10  1  0.86094000  0.98350000  0.98350000  1
  C  C11  1  0.90380000  0.96080000  0.96080000  1
  C  C12  1  0.26506000  0.45056000  0.08118000  1
  C  C13  1  0.28733000  0.41147000  0.07571000  1
  C  C14  1  0.04795000  0.80153000  0.16443000  1
  C  C15  1  0.02566000  0.84062000  0.16990000  1
  C  C16  1  0.19791000  0.50995000  0.09423000  1
  C  C17  1  0.22254000  0.47032000  0.08460000  1
  C  C18  1  0.26765000  0.39115000  0.07355000  1
  C  C19  1  0.29035000  0.34829000  0.07101000  1
  C  C20  1  0.05324000  0.74214000  0.15138000  1
  C  C21  1  0.02861000  0.78177000  0.16101000  1
  C  C22  1  0.98350000  0.86094000  0.17206000  1
  C  C23  1  0.96080000  0.90380000  0.17460000  1
  C  C24  1  0.08118000  0.26506000  0.20320000  1
  C  C25  1  0.07571000  0.28733000  0.22549000  1
  C  C26  1  0.16443000  0.04795000  0.98609000  1
  C  C27  1  0.16990000  0.02566000  0.96382000  1
  C  C28  1  0.09423000  0.19791000  0.19791000  1
  C  C29  1  0.08460000  0.22254000  0.22254000  1
  C  C30  1  0.07355000  0.26765000  0.26765000  1
  C  C31  1  0.07101000  0.29035000  0.29035000  1
  C  C32  1  0.15138000  0.05324000  0.05324000  1
  C  C33  1  0.16101000  0.02861000  0.02861000  1
  C  C34  1  0.17206000  0.98350000  0.98350000  1
  C  C35  1  0.17460000  0.96080000  0.96080000  1
  C  C36  1  0.20320000  0.08118000  0.45056000  1
  C  C37  1  0.22549000  0.07571000  0.41147000  1
  C  C38  1  0.98609000  0.16443000  0.80153000  1
  C  C39  1  0.96382000  0.16990000  0.84062000  1
  C  C40  1  0.19791000  0.09423000  0.50995000  1
  C  C41  1  0.22254000  0.08460000  0.47032000  1
  C  C42  1  0.26765000  0.07355000  0.39115000  1
  C  C43  1  0.29035000  0.07101000  0.34829000  1
  C  C44  1  0.05324000  0.15138000  0.74214000  1
  C  C45  1  0.02861000  0.16101000  0.78177000  1
  C  C46  1  0.98350000  0.17206000  0.86094000  1
  C  C47  1  0.96080000  0.17460000  0.90380000  1
  C  C48  1  0.20320000  0.45056000  0.08118000  1
  C  C49  1  0.22549000  0.41147000  0.07571000  1
  C  C50  1  0.98609000  0.80153000  0.16443000  1
  C  C51  1  0.96382000  0.84062000  0.16990000  1
  C  C52  1  0.08118000  0.20320000  0.26506000  1
  C  C53  1  0.07571000  0.22549000  0.28733000  1
  C  C54  1  0.16443000  0.98609000  0.04795000  1
  C  C55  1  0.16990000  0.96382000  0.02566000  1
  C  C56  1  0.26506000  0.08118000  0.45056000  1
  C  C57  1  0.28733000  0.07571000  0.41147000  1
  C  C58  1  0.04795000  0.16443000  0.80153000  1
  C  C59  1  0.02566000  0.16990000  0.84062000  1
  C  C60  1  0.45056000  0.26506000  0.20320000  1
  C  C61  1  0.41147000  0.28733000  0.22549000  1
  C  C62  1  0.80153000  0.04795000  0.98609000  1
  C  C63  1  0.84062000  0.02566000  0.96382000  1
  C  C64  1  0.20320000  0.26506000  0.45056000  1
  C  C65  1  0.22549000  0.28733000  0.41147000  1
  C  C66  1  0.98609000  0.04795000  0.80153000  1
  C  C67  1  0.96382000  0.02566000  0.84062000  1
  C  C68  1  0.19791000  0.19791000  0.50995000  1
  C  C69  1  0.22254000  0.22254000  0.47032000  1
  C  C70  1  0.26765000  0.26765000  0.39115000  1
  C  C71  1  0.29035000  0.29035000  0.34829000  1
  C  C72  1  0.05324000  0.05324000  0.74214000  1
  C  C73  1  0.02861000  0.02861000  0.78177000  1
  C  C74  1  0.98350000  0.98350000  0.86094000  1
  C  C75  1  0.96080000  0.96080000  0.90380000  1
  C  C76  1  0.45056000  0.20320000  0.08118000  1
  C  C77  1  0.41147000  0.22549000  0.07571000  1
  C  C78  1  0.80153000  0.98609000  0.16443000  1
  C  C79  1  0.84062000  0.96382000  0.16990000  1
  C  C80  1  0.50995000  0.19791000  0.09423000  1
  C  C81  1  0.47032000  0.22254000  0.08460000  1
  C  C82  1  0.39115000  0.26765000  0.07355000  1
  C  C83  1  0.34829000  0.29035000  0.07101000  1
  C  C84  1  0.74214000  0.05324000  0.15138000  1
  C  C85  1  0.78177000  0.02861000  0.16101000  1
  C  C86  1  0.86094000  0.98350000  0.17206000  1
  C  C87  1  0.90380000  0.96080000  0.17460000  1
  C  C88  1  0.08118000  0.45056000  0.26506000  1
  C  C89  1  0.07571000  0.41147000  0.28733000  1
  C  C90  1  0.16443000  0.80153000  0.04795000  1
  C  C91  1  0.16990000  0.84062000  0.02566000  1
  C  C92  1  0.09423000  0.50995000  0.19791000  1
  C  C93  1  0.08460000  0.47032000  0.22254000  1
  C  C94  1  0.07355000  0.39115000  0.26765000  1
  C  C95  1  0.07101000  0.34829000  0.29035000  1
  C  C96  1  0.15138000  0.74214000  0.05324000  1
  C  C97  1  0.16101000  0.78177000  0.02861000  1
  C  C98  1  0.17206000  0.86094000  0.98350000  1
  C  C99  1  0.17460000  0.90380000  0.96080000  1
  C  C100  1  0.26506000  0.08118000  0.20320000  1
  C  C101  1  0.28733000  0.07571000  0.22549000  1
  C  C102  1  0.04795000  0.16443000  0.98609000  1
  C  C103  1  0.02566000  0.16990000  0.96382000  1
  C  C104  1  0.19791000  0.09423000  0.19791000  1
  C  C105  1  0.22254000  0.08460000  0.22254000  1
  C  C106  1  0.26765000  0.07355000  0.26765000  1
  C  C107  1  0.29035000  0.07101000  0.29035000  1
  C  C108  1  0.05324000  0.15138000  0.05324000  1
  C  C109  1  0.02861000  0.16101000  0.02861000  1
  C  C110  1  0.98350000  0.17206000  0.98350000  1
  C  C111  1  0.96080000  0.17460000  0.96080000  1
  C  C112  1  0.26506000  0.20320000  0.08118000  1
  C  C113  1  0.28733000  0.22549000  0.07571000  1
  C  C114  1  0.04795000  0.98609000  0.16443000  1
  C  C115  1  0.02566000  0.96382000  0.16990000  1
  C  C116  1  0.19791000  0.19791000  0.09423000  1
  C  C117  1  0.22254000  0.22254000  0.08460000  1
  C  C118  1  0.26765000  0.26765000  0.07355000  1
  C  C119  1  0.29035000  0.29035000  0.07101000  1
  C  C120  1  0.05324000  0.05324000  0.15138000  1
  C  C121  1  0.02861000  0.02861000  0.16101000  1
  C  C122  1  0.98350000  0.98350000  0.17206000  1
  C  C123  1  0.96080000  0.96080000  0.17460000  1
  C  C124  1  0.08118000  0.26506000  0.45056000  1
  C  C125  1  0.07571000  0.28733000  0.41147000  1
  C  C126  1  0.16443000  0.04795000  0.80153000  1
  C  C127  1  0.16990000  0.02566000  0.84062000  1
  C  C128  1  0.09423000  0.19791000  0.50995000  1
  C  C129  1  0.08460000  0.22254000  0.47032000  1
  C  C130  1  0.07355000  0.26765000  0.39115000  1
  C  C131  1  0.07101000  0.29035000  0.34829000  1
  C  C132  1  0.15138000  0.05324000  0.74214000  1
  C  C133  1  0.16101000  0.02861000  0.78177000  1
  C  C134  1  0.17206000  0.98350000  0.86094000  1
  C  C135  1  0.17460000  0.96080000  0.90380000  1
  C  C136  1  0.45056000  0.08118000  0.20320000  1
  C  C137  1  0.41147000  0.07571000  0.22549000  1
  C  C138  1  0.80153000  0.16443000  0.98609000  1
  C  C139  1  0.84062000  0.16990000  0.96382000  1
  C  C140  1  0.50995000  0.09423000  0.19791000  1
  C  C141  1  0.47032000  0.08460000  0.22254000  1
  C  C142  1  0.39115000  0.07355000  0.26765000  1
  C  C143  1  0.34829000  0.07101000  0.29035000  1
  C  C144  1  0.74214000  0.15138000  0.05324000  1
  C  C145  1  0.78177000  0.16101000  0.02861000  1
  C  C146  1  0.86094000  0.17206000  0.98350000  1
  C  C147  1  0.90380000  0.17460000  0.96080000  1
  C  C148  1  0.20320000  0.45056000  0.26506000  1
  C  C149  1  0.22549000  0.41147000  0.28733000  1
  C  C150  1  0.98609000  0.80153000  0.04795000  1
  C  C151  1  0.96382000  0.84062000  0.02566000  1
  C  C152  1  0.19791000  0.50995000  0.19791000  1
  C  C153  1  0.22254000  0.47032000  0.22254000  1
  C  C154  1  0.26765000  0.39115000  0.26765000  1
  C  C155  1  0.29035000  0.34829000  0.29035000  1
  C  C156  1  0.05324000  0.74214000  0.05324000  1
  C  C157  1  0.02861000  0.78177000  0.02861000  1
  C  C158  1  0.98350000  0.86094000  0.98350000  1
  C  C159  1  0.96080000  0.90380000  0.96080000  1
  C  C160  1  0.26506000  0.45056000  0.20320000  1
  C  C161  1  0.28733000  0.41147000  0.22549000  1
  C  C162  1  0.04795000  0.80153000  0.98609000  1
  C  C163  1  0.02566000  0.84062000  0.96382000  1
  C  C164  1  0.45056000  0.26506000  0.08118000  1
  C  C165  1  0.41147000  0.28733000  0.07571000  1
  C  C166  1  0.80153000  0.04795000  0.16443000  1
  C  C167  1  0.84062000  0.02566000  0.16990000  1
  C  C168  1  0.08118000  0.45056000  0.20320000  1
  C  C169  1  0.07571000  0.41147000  0.22549000  1
  C  C170  1  0.16443000  0.80153000  0.98609000  1
  C  C171  1  0.16990000  0.84062000  0.96382000  1
  C  C172  1  0.20320000  0.08118000  0.26506000  1
  C  C173  1  0.22549000  0.07571000  0.28733000  1
  C  C174  1  0.98609000  0.16443000  0.04795000  1
  C  C175  1  0.96382000  0.16990000  0.02566000  1
  C  C176  1  0.26506000  0.20320000  0.45056000  1
  C  C177  1  0.28733000  0.22549000  0.41147000  1
  C  C178  1  0.04795000  0.98609000  0.80153000  1
  C  C179  1  0.02566000  0.96382000  0.84062000  1
  C  C180  1  0.08118000  0.20320000  0.45056000  1
  C  C181  1  0.07571000  0.22549000  0.41147000  1
  C  C182  1  0.16443000  0.98609000  0.80153000  1
  C  C183  1  0.16990000  0.96382000  0.84062000  1
  C  C184  1  0.45056000  0.08118000  0.26506000  1
  C  C185  1  0.41147000  0.07571000  0.28733000  1
  C  C186  1  0.80153000  0.16443000  0.04795000  1
  C  C187  1  0.84062000  0.16990000  0.02566000  1
  C  C188  1  0.20320000  0.26506000  0.08118000  1
  C  C189  1  0.22549000  0.28733000  0.07571000  1
  C  C190  1  0.98609000  0.04795000  0.16443000  1
  C  C191  1  0.96382000  0.02566000  0.16990000  1
  H  H192  1  0.46482000  0.17052000  0.28098000  1
  H  H193  1  0.39683000  0.20933000  0.31979000  1
  H  H194  1  0.78727000  0.97017000  0.08063000  1
  H  H195  1  0.85526000  0.93136000  0.04182000  1
  H  H196  1  0.28098000  0.46482000  0.08368000  1
  H  H197  1  0.31979000  0.39683000  0.07405000  1
  H  H198  1  0.08063000  0.78727000  0.16193000  1
  H  H199  1  0.04182000  0.85526000  0.17156000  1
  H  H200  1  0.08368000  0.28098000  0.17052000  1
  H  H201  1  0.07405000  0.31979000  0.20933000  1
  H  H202  1  0.16193000  0.08063000  0.97017000  1
  H  H203  1  0.17156000  0.04182000  0.93136000  1
  H  H204  1  0.17052000  0.08368000  0.46482000  1
  H  H205  1  0.20933000  0.07405000  0.39683000  1
  H  H206  1  0.97017000  0.16193000  0.78727000  1
  H  H207  1  0.93136000  0.17156000  0.85526000  1
  H  H208  1  0.17052000  0.46482000  0.08368000  1
  H  H209  1  0.20933000  0.39683000  0.07405000  1
  H  H210  1  0.97017000  0.78727000  0.16193000  1
  H  H211  1  0.93136000  0.85526000  0.17156000  1
  H  H212  1  0.08368000  0.17052000  0.28098000  1
  H  H213  1  0.07405000  0.20933000  0.31979000  1
  H  H214  1  0.16193000  0.97017000  0.08063000  1
  H  H215  1  0.17156000  0.93136000  0.04182000  1
  H  H216  1  0.28098000  0.08368000  0.46482000  1
  H  H217  1  0.31979000  0.07405000  0.39683000  1
  H  H218  1  0.08063000  0.16193000  0.78727000  1
  H  H219  1  0.04182000  0.17156000  0.85526000  1
  H  H220  1  0.46482000  0.28098000  0.17052000  1
  H  H221  1  0.39683000  0.31979000  0.20933000  1
  H  H222  1  0.78727000  0.08063000  0.97017000  1
  H  H223  1  0.85526000  0.04182000  0.93136000  1
  H  H224  1  0.17052000  0.28098000  0.46482000  1
  H  H225  1  0.20933000  0.31979000  0.39683000  1
  H  H226  1  0.97017000  0.08063000  0.78727000  1
  H  H227  1  0.93136000  0.04182000  0.85526000  1
  H  H228  1  0.46482000  0.17052000  0.08368000  1
  H  H229  1  0.39683000  0.20933000  0.07405000  1
  H  H230  1  0.78727000  0.97017000  0.16193000  1
  H  H231  1  0.85526000  0.93136000  0.17156000  1
  H  H232  1  0.08368000  0.46482000  0.28098000  1
  H  H233  1  0.07405000  0.39683000  0.31979000  1
  H  H234  1  0.16193000  0.78727000  0.08063000  1
  H  H235  1  0.17156000  0.85526000  0.04182000  1
  H  H236  1  0.28098000  0.08368000  0.17052000  1
  H  H237  1  0.31979000  0.07405000  0.20933000  1
  H  H238  1  0.08063000  0.16193000  0.97017000  1
  H  H239  1  0.04182000  0.17156000  0.93136000  1
  H  H240  1  0.28098000  0.17052000  0.08368000  1
  H  H241  1  0.31979000  0.20933000  0.07405000  1
  H  H242  1  0.08063000  0.97017000  0.16193000  1
  H  H243  1  0.04182000  0.93136000  0.17156000  1
  H  H244  1  0.08368000  0.28098000  0.46482000  1
  H  H245  1  0.07405000  0.31979000  0.39683000  1
  H  H246  1  0.16193000  0.08063000  0.78727000  1
  H  H247  1  0.17156000  0.04182000  0.85526000  1
  H  H248  1  0.46482000  0.08368000  0.17052000  1
  H  H249  1  0.39683000  0.07405000  0.20933000  1
  H  H250  1  0.78727000  0.16193000  0.97017000  1
  H  H251  1  0.85526000  0.17156000  0.93136000  1
  H  H252  1  0.17052000  0.46482000  0.28098000  1
  H  H253  1  0.20933000  0.39683000  0.31979000  1
  H  H254  1  0.97017000  0.78727000  0.08063000  1
  H  H255  1  0.93136000  0.85526000  0.04182000  1
  H  H256  1  0.28098000  0.46482000  0.17052000  1
  H  H257  1  0.31979000  0.39683000  0.20933000  1
  H  H258  1  0.08063000  0.78727000  0.97017000  1
  H  H259  1  0.04182000  0.85526000  0.93136000  1
  H  H260  1  0.46482000  0.28098000  0.08368000  1
  H  H261  1  0.39683000  0.31979000  0.07405000  1
  H  H262  1  0.78727000  0.08063000  0.16193000  1
  H  H263  1  0.85526000  0.04182000  0.17156000  1
  H  H264  1  0.08368000  0.46482000  0.17052000  1
  H  H265  1  0.07405000  0.39683000  0.20933000  1
  H  H266  1  0.16193000  0.78727000  0.97017000  1
  H  H267  1  0.17156000  0.85526000  0.93136000  1
  H  H268  1  0.17052000  0.08368000  0.28098000  1
  H  H269  1  0.20933000  0.07405000  0.31979000  1
  H  H270  1  0.97017000  0.16193000  0.08063000  1
  H  H271  1  0.93136000  0.17156000  0.04182000  1
  H  H272  1  0.28098000  0.17052000  0.46482000  1
  H  H273  1  0.31979000  0.20933000  0.39683000  1
  H  H274  1  0.08063000  0.97017000  0.78727000  1
  H  H275  1  0.04182000  0.93136000  0.85526000  1
  H  H276  1  0.08368000  0.17052000  0.46482000  1
  H  H277  1  0.07405000  0.20933000  0.39683000  1
  H  H278  1  0.16193000  0.97017000  0.78727000  1
  H  H279  1  0.17156000  0.93136000  0.85526000  1
  H  H280  1  0.46482000  0.08368000  0.28098000  1
  H  H281  1  0.39683000  0.07405000  0.31979000  1
  H  H282  1  0.78727000  0.16193000  0.08063000  1
  H  H283  1  0.85526000  0.17156000  0.04182000  1
  H  H284  1  0.17052000  0.28098000  0.08368000  1
  H  H285  1  0.20933000  0.31979000  0.07405000  1
  H  H286  1  0.97017000  0.08063000  0.16193000  1
  H  H287  1  0.93136000  0.04182000  0.17156000  1
  N  N288  1  0.32919000  0.32919000  0.27175000  1
  N  N289  1  0.92243000  0.97893000  0.92243000  1
  N  N290  1  0.27175000  0.32919000  0.06987000  1
  N  N291  1  0.92243000  0.92243000  0.17621000  1
  N  N292  1  0.06987000  0.27175000  0.32919000  1
  N  N293  1  0.17621000  0.92243000  0.97893000  1
  N  N294  1  0.32919000  0.06987000  0.32919000  1
  N  N295  1  0.97893000  0.17621000  0.92243000  1
  N  N296  1  0.32919000  0.32919000  0.06987000  1
  N  N297  1  0.97893000  0.92243000  0.17621000  1
  N  N298  1  0.06987000  0.32919000  0.27175000  1
  N  N299  1  0.17621000  0.97893000  0.92243000  1
  N  N300  1  0.27175000  0.06987000  0.32919000  1
  N  N301  1  0.92243000  0.17621000  0.92243000  1
  N  N302  1  0.32919000  0.27175000  0.32919000  1
  N  N303  1  0.92243000  0.92243000  0.97893000  1
  N  N304  1  0.97893000  0.92243000  0.92243000  1
  N  N305  1  0.92243000  0.97893000  0.17621000  1
  N  N306  1  0.17621000  0.92243000  0.92243000  1
  N  N307  1  0.92243000  0.17621000  0.97893000  1
  N  N308  1  0.27175000  0.32919000  0.32919000  1
  N  N309  1  0.32919000  0.27175000  0.06987000  1
  N  N310  1  0.06987000  0.32919000  0.32919000  1
  N  N311  1  0.32919000  0.06987000  0.27175000  1
  O  O312  1  0.59289000  0.04925000  0.24853000  1
  O  O313  1  0.67392000  0.99534000  0.19502000  1
  O  O314  1  0.52565000  0.15871000  0.21685000  1
  O  O315  1  0.72644000  0.03430000  0.09244000  1
  O  O316  1  0.64948000  0.08684000  0.17684000  1
  O  O317  1  0.60223000  0.07231000  0.16273000  1
  O  O318  1  0.56065000  0.14645000  0.14645000  1
  O  O319  1  0.69046000  0.10318000  0.10318000  1
  O  O320  1  0.24853000  0.59289000  0.10933000  1
  O  O321  1  0.19502000  0.67392000  0.13572000  1
  O  O322  1  0.21685000  0.52565000  0.09879000  1
  O  O323  1  0.09244000  0.72644000  0.14682000  1
  O  O324  1  0.17684000  0.64948000  0.08684000  1
  O  O325  1  0.16273000  0.60223000  0.16273000  1
  O  O326  1  0.14645000  0.56065000  0.14645000  1
  O  O327  1  0.10318000  0.69046000  0.10318000  1
  O  O328  1  0.10933000  0.24853000  0.04925000  1
  O  O329  1  0.13572000  0.19502000  0.99534000  1
  O  O330  1  0.09879000  0.21685000  0.15871000  1
  O  O331  1  0.14682000  0.09244000  0.03430000  1
  O  O332  1  0.08684000  0.17684000  0.08684000  1
  O  O333  1  0.16273000  0.16273000  0.07231000  1
  O  O334  1  0.14645000  0.14645000  0.14645000  1
  O  O335  1  0.10318000  0.10318000  0.10318000  1
  O  O336  1  0.04925000  0.10933000  0.59289000  1
  O  O337  1  0.99534000  0.13572000  0.67392000  1
  O  O338  1  0.15871000  0.09879000  0.52565000  1
  O  O339  1  0.03430000  0.14682000  0.72644000  1
  O  O340  1  0.08684000  0.08684000  0.64948000  1
  O  O341  1  0.07231000  0.16273000  0.60223000  1
  O  O342  1  0.14645000  0.14645000  0.56065000  1
  O  O343  1  0.10318000  0.10318000  0.69046000  1
  O  O344  1  0.04925000  0.59289000  0.10933000  1
  O  O345  1  0.99534000  0.67392000  0.13572000  1
  O  O346  1  0.15871000  0.52565000  0.09879000  1
  O  O347  1  0.03430000  0.72644000  0.14682000  1
  O  O348  1  0.08684000  0.64948000  0.08684000  1
  O  O349  1  0.07231000  0.60223000  0.16273000  1
  O  O350  1  0.10933000  0.04925000  0.24853000  1
  O  O351  1  0.13572000  0.99534000  0.19502000  1
  O  O352  1  0.09879000  0.15871000  0.21685000  1
  O  O353  1  0.14682000  0.03430000  0.09244000  1
  O  O354  1  0.08684000  0.08684000  0.17684000  1
  O  O355  1  0.16273000  0.07231000  0.16273000  1
  O  O356  1  0.24853000  0.10933000  0.59289000  1
  O  O357  1  0.19502000  0.13572000  0.67392000  1
  O  O358  1  0.21685000  0.09879000  0.52565000  1
  O  O359  1  0.09244000  0.14682000  0.72644000  1
  O  O360  1  0.17684000  0.08684000  0.64948000  1
  O  O361  1  0.16273000  0.16273000  0.60223000  1
  O  O362  1  0.59289000  0.24853000  0.04925000  1
  O  O363  1  0.67392000  0.19502000  0.99534000  1
  O  O364  1  0.52565000  0.21685000  0.15871000  1
  O  O365  1  0.72644000  0.09244000  0.03430000  1
  O  O366  1  0.64948000  0.17684000  0.08684000  1
  O  O367  1  0.60223000  0.16273000  0.07231000  1
  O  O368  1  0.04925000  0.24853000  0.59289000  1
  O  O369  1  0.99534000  0.19502000  0.67392000  1
  O  O370  1  0.15871000  0.21685000  0.52565000  1
  O  O371  1  0.03430000  0.09244000  0.72644000  1
  O  O372  1  0.08684000  0.17684000  0.64948000  1
  O  O373  1  0.59289000  0.04925000  0.10933000  1
  O  O374  1  0.67392000  0.99534000  0.13572000  1
  O  O375  1  0.52565000  0.15871000  0.09879000  1
  O  O376  1  0.72644000  0.03430000  0.14682000  1
  O  O377  1  0.64948000  0.08684000  0.08684000  1
  O  O378  1  0.10933000  0.59289000  0.24853000  1
  O  O379  1  0.13572000  0.67392000  0.19502000  1
  O  O380  1  0.09879000  0.52565000  0.21685000  1
  O  O381  1  0.14682000  0.72644000  0.09244000  1
  O  O382  1  0.08684000  0.64948000  0.17684000  1
  O  O383  1  0.24853000  0.10933000  0.04925000  1
  O  O384  1  0.19502000  0.13572000  0.99534000  1
  O  O385  1  0.21685000  0.09879000  0.15871000  1
  O  O386  1  0.09244000  0.14682000  0.03430000  1
  O  O387  1  0.17684000  0.08684000  0.08684000  1
  O  O388  1  0.24853000  0.04925000  0.10933000  1
  O  O389  1  0.19502000  0.99534000  0.13572000  1
  O  O390  1  0.21685000  0.15871000  0.09879000  1
  O  O391  1  0.09244000  0.03430000  0.14682000  1
  O  O392  1  0.10933000  0.24853000  0.59289000  1
  O  O393  1  0.13572000  0.19502000  0.67392000  1
  O  O394  1  0.09879000  0.21685000  0.52565000  1
  O  O395  1  0.14682000  0.09244000  0.72644000  1
  O  O396  1  0.59289000  0.10933000  0.04925000  1
  O  O397  1  0.67392000  0.13572000  0.99534000  1
  O  O398  1  0.52565000  0.09879000  0.15871000  1
  O  O399  1  0.72644000  0.14682000  0.03430000  1
  O  O400  1  0.04925000  0.59289000  0.24853000  1
  O  O401  1  0.99534000  0.67392000  0.19502000  1
  O  O402  1  0.15871000  0.52565000  0.21685000  1
  O  O403  1  0.03430000  0.72644000  0.09244000  1
  O  O404  1  0.24853000  0.59289000  0.04925000  1
  O  O405  1  0.19502000  0.67392000  0.99534000  1
  O  O406  1  0.21685000  0.52565000  0.15871000  1
  O  O407  1  0.09244000  0.72644000  0.03430000  1
  O  O408  1  0.16273000  0.60223000  0.07231000  1
  O  O409  1  0.59289000  0.24853000  0.10933000  1
  O  O410  1  0.67392000  0.19502000  0.13572000  1
  O  O411  1  0.52565000  0.21685000  0.09879000  1
  O  O412  1  0.72644000  0.09244000  0.14682000  1
  O  O413  1  0.60223000  0.16273000  0.16273000  1
  O  O414  1  0.10933000  0.59289000  0.04925000  1
  O  O415  1  0.13572000  0.67392000  0.99534000  1
  O  O416  1  0.09879000  0.52565000  0.15871000  1
  O  O417  1  0.14682000  0.72644000  0.03430000  1
  O  O418  1  0.04925000  0.10933000  0.24853000  1
  O  O419  1  0.99534000  0.13572000  0.19502000  1
  O  O420  1  0.15871000  0.09879000  0.21685000  1
  O  O421  1  0.03430000  0.14682000  0.09244000  1
  O  O422  1  0.07231000  0.16273000  0.16273000  1
  O  O423  1  0.24853000  0.04925000  0.59289000  1
  O  O424  1  0.19502000  0.99534000  0.67392000  1
  O  O425  1  0.21685000  0.15871000  0.52565000  1
  O  O426  1  0.09244000  0.03430000  0.72644000  1
  O  O427  1  0.16273000  0.07231000  0.60223000  1
  O  O428  1  0.10933000  0.04925000  0.59289000  1
  O  O429  1  0.13572000  0.99534000  0.67392000  1
  O  O430  1  0.09879000  0.15871000  0.52565000  1
  O  O431  1  0.14682000  0.03430000  0.72644000  1
  O  O432  1  0.59289000  0.10933000  0.24853000  1
  O  O433  1  0.67392000  0.13572000  0.19502000  1
  O  O434  1  0.52565000  0.09879000  0.21685000  1
  O  O435  1  0.72644000  0.14682000  0.09244000  1
  O  O436  1  0.04925000  0.24853000  0.10933000  1
  O  O437  1  0.99534000  0.19502000  0.13572000  1
  O  O438  1  0.15871000  0.21685000  0.09879000  1
  O  O439  1  0.03430000  0.09244000  0.14682000  1
  Zr  Zr440  1  0.58210000  0.10900000  0.19990000  1
  Zr  Zr441  1  0.66912000  0.04984000  0.14052000  1
  Zr  Zr442  1  0.19990000  0.58210000  0.10900000  1
  Zr  Zr443  1  0.14052000  0.66912000  0.14052000  1
  Zr  Zr444  1  0.10900000  0.19990000  0.10900000  1
  Zr  Zr445  1  0.14052000  0.14052000  0.04984000  1
  Zr  Zr446  1  0.10900000  0.10900000  0.58210000  1
  Zr  Zr447  1  0.04984000  0.14052000  0.66912000  1
  Zr  Zr448  1  0.10900000  0.58210000  0.10900000  1
  Zr  Zr449  1  0.04984000  0.66912000  0.14052000  1
  Zr  Zr450  1  0.10900000  0.10900000  0.19990000  1
  Zr  Zr451  1  0.14052000  0.04984000  0.14052000  1
  Zr  Zr452  1  0.19990000  0.10900000  0.58210000  1
  Zr  Zr453  1  0.14052000  0.14052000  0.66912000  1
  Zr  Zr454  1  0.58210000  0.19990000  0.10900000  1
  Zr  Zr455  1  0.66912000  0.14052000  0.04984000  1
  Zr  Zr456  1  0.10900000  0.19990000  0.58210000  1
  Zr  Zr457  1  0.58210000  0.10900000  0.10900000  1
  Zr  Zr458  1  0.10900000  0.58210000  0.19990000  1
  Zr  Zr459  1  0.19990000  0.10900000  0.10900000  1
  Zr  Zr460  1  0.14052000  0.66912000  0.04984000  1
  Zr  Zr461  1  0.66912000  0.14052000  0.14052000  1
  Zr  Zr462  1  0.04984000  0.14052000  0.14052000  1
  Zr  Zr463  1  0.14052000  0.04984000  0.66912000  1
