# generated using pymatgen
data_Zr6H36C57(N3O14)2
_symmetry_space_group_name_H-M   'P 1'
_cell_length_a   18.75210000
_cell_length_b   29.02781940
_cell_length_c   29.02781940
_cell_angle_alpha   84.01140875
_cell_angle_beta   71.15541628
_cell_angle_gamma   71.15541628
_symmetry_Int_Tables_number   1
_chemical_formula_structural   Zr6H36C57(N3O14)2
_chemical_formula_sum   'Zr24 H144 C228 N24 O112'
_cell_volume   14152.28460846
_cell_formula_units_Z   4
loop_
 _symmetry_equiv_pos_site_id
 _symmetry_equiv_pos_as_xyz
  1  'x, y, z'
loop_
 _atom_site_type_symbol
 _atom_site_label
 _atom_site_symmetry_multiplicity
 _atom_site_fract_x
 _atom_site_fract_y
 _atom_site_fract_z
 _atom_site_occupancy
  C  C0  1  0.85690000  0.10930000  0.79650000  1
  C  C1  1  0.84200000  0.06050000  0.81270000  1
  C  C2  1  0.80670000  0.03900000  0.79020000  1
  C  C3  1  0.79310000  0.99620000  0.80620000  1
  C  C4  1  0.81980000  0.97080000  0.84200000  1
  C  C5  1  0.86120000  0.98990000  0.86470000  1
  C  C6  1  0.86800000  0.03650000  0.85070000  1
  C  C7  1  0.87350000  0.78150000  0.08910000  1
  C  C8  1  0.86040000  0.80030000  0.04470000  1
  C  C9  1  0.88050000  0.84050000  0.02230000  1
  C  C10  1  0.85860000  0.86090000  0.98130000  1
  C  C11  1  0.83360000  0.83880000  0.95740000  1
  C  C12  1  0.81430000  0.79770000  0.97770000  1
  C  C13  1  0.82620000  0.77950000  0.01990000  1
  C  C14  1  0.55950000  0.79780000  0.77840000  1
  C  C15  1  0.61490000  0.81300000  0.79600000  1
  C  C16  1  0.63940000  0.85450000  0.77530000  1
  C  C17  1  0.68400000  0.86960000  0.79340000  1
  C  C18  1  0.71040000  0.84590000  0.83350000  1
  C  C19  1  0.69260000  0.80720000  0.85340000  1
  C  C20  1  0.63980000  0.79120000  0.83460000  1
  C  C21  1  0.75590000  0.86590000  0.85530000  1
  C  C22  1  0.80500000  0.86240000  0.91420000  1
  C  C23  1  0.81080000  0.92480000  0.85920000  1
  C  C24  1  0.76117000  0.43378000  0.91798000  1
  C  C25  1  0.72532000  0.46963000  0.95383000  1
  C  C26  1  0.76270000  0.89070000  0.20350000  1
  C  C27  1  0.71520000  0.93950000  0.18730000  1
  C  C28  1  0.63590000  0.96100000  0.20980000  1
  C  C29  1  0.59550000  0.00380000  0.19380000  1
  C  C30  1  0.63260000  0.02920000  0.15800000  1
  C  C31  1  0.71580000  0.01010000  0.13530000  1
  C  C32  1  0.75520000  0.96350000  0.14930000  1
  C  C33  1  0.74410000  0.21850000  0.91090000  1
  C  C34  1  0.70540000  0.19970000  0.95530000  1
  C  C35  1  0.74330000  0.15950000  0.97770000  1
  C  C36  1  0.70080000  0.13910000  0.01870000  1
  C  C37  1  0.62980000  0.16120000  0.04260000  1
  C  C38  1  0.58970000  0.20230000  0.02230000  1
  C  C39  1  0.62560000  0.22050000  0.98010000  1
  C  C40  1  0.13570000  0.20220000  0.22160000  1
  C  C41  1  0.22390000  0.18700000  0.20400000  1
  C  C42  1  0.26920000  0.14550000  0.22470000  1
  C  C43  1  0.34700000  0.13040000  0.20660000  1
  C  C44  1  0.38980000  0.15410000  0.16650000  1
  C  C45  1  0.35320000  0.19280000  0.14660000  1
  C  C46  1  0.26560000  0.20880000  0.16540000  1
  C  C47  1  0.47710000  0.13410000  0.14470000  1
  C  C48  1  0.58160000  0.13760000  0.08580000  1
  C  C49  1  0.59480000  0.07520000  0.14080000  1
  C  C50  1  0.11293000  0.56622000  0.08202000  1
  C  C51  1  0.14878000  0.53037000  0.04617000  1
  C  C52  1  0.03380000  0.20350000  0.10930000  1
  C  C53  1  0.09750000  0.18730000  0.06050000  1
  C  C54  1  0.15430000  0.20980000  0.03900000  1
  C  C55  1  0.21070000  0.19380000  0.99620000  1
  C  C56  1  0.20940000  0.15800000  0.97080000  1
  C  C57  1  0.14890000  0.13530000  0.98990000  1
  C  C58  1  0.09550000  0.14930000  0.03650000  1
  C  C59  1  0.34500000  0.91090000  0.78150000  1
  C  C60  1  0.33930000  0.95530000  0.80030000  1
  C  C61  1  0.27900000  0.97770000  0.84050000  1
  C  C62  1  0.28050000  0.01870000  0.86090000  1
  C  C63  1  0.32760000  0.04260000  0.83880000  1
  C  C64  1  0.38800000  0.02230000  0.79770000  1
  C  C65  1  0.39430000  0.98010000  0.77950000  1
  C  C66  1  0.64270000  0.22160000  0.79780000  1
  C  C67  1  0.57210000  0.20400000  0.81300000  1
  C  C68  1  0.50610000  0.22470000  0.85450000  1
  C  C69  1  0.44640000  0.20660000  0.86960000  1
  C  C70  1  0.44370000  0.16650000  0.84590000  1
  C  C71  1  0.50020000  0.14660000  0.80720000  1
  C  C72  1  0.56900000  0.16540000  0.79120000  1
  C  C73  1  0.37820000  0.14470000  0.86590000  1
  C  C74  1  0.33260000  0.08580000  0.86240000  1
  C  C75  1  0.26440000  0.14080000  0.92480000  1
  C  C76  1  0.80505000  0.08202000  0.43378000  1
  C  C77  1  0.80505000  0.04617000  0.46963000  1
  C  C78  1  0.34660000  0.79650000  0.89070000  1
  C  C79  1  0.34530000  0.81270000  0.93950000  1
  C  C80  1  0.40310000  0.79020000  0.96100000  1
  C  C81  1  0.40070000  0.80620000  0.00380000  1
  C  C82  1  0.33820000  0.84200000  0.02920000  1
  C  C83  1  0.27410000  0.86470000  0.01010000  1
  C  C84  1  0.28130000  0.85070000  0.96350000  1
  C  C85  1  0.03740000  0.08910000  0.21850000  1
  C  C86  1  0.09490000  0.04470000  0.19970000  1
  C  C87  1  0.09720000  0.02230000  0.15950000  1
  C  C88  1  0.16010000  0.98130000  0.13910000  1
  C  C89  1  0.20900000  0.95740000  0.16120000  1
  C  C90  1  0.20800000  0.97770000  0.20230000  1
  C  C91  1  0.15390000  0.01990000  0.22050000  1
  C  C92  1  0.66210000  0.77840000  0.20220000  1
  C  C93  1  0.58910000  0.79600000  0.18700000  1
  C  C94  1  0.58530000  0.77530000  0.14550000  1
  C  C95  1  0.52260000  0.79340000  0.13040000  1
  C  C96  1  0.45610000  0.83350000  0.15410000  1
  C  C97  1  0.45400000  0.85340000  0.19280000  1
  C  C98  1  0.52560000  0.83460000  0.20880000  1
  C  C99  1  0.38880000  0.85530000  0.13410000  1
  C  C100  1  0.28080000  0.91420000  0.13760000  1
  C  C101  1  0.33000000  0.85920000  0.07520000  1
  C  C102  1  0.32085000  0.91798000  0.56622000  1
  C  C103  1  0.32085000  0.95383000  0.53037000  1
  C  C104  1  0.89310000  0.70350000  0.39070000  1
  C  C105  1  0.90800000  0.68730000  0.43950000  1
  C  C106  1  0.94330000  0.70980000  0.46100000  1
  C  C107  1  0.95690000  0.69380000  0.50380000  1
  C  C108  1  0.93020000  0.65800000  0.52920000  1
  C  C109  1  0.88880000  0.63530000  0.51010000  1
  C  C110  1  0.88200000  0.64930000  0.46350000  1
  C  C111  1  0.87650000  0.41090000  0.71850000  1
  C  C112  1  0.88960000  0.45530000  0.69970000  1
  C  C113  1  0.86950000  0.47770000  0.65950000  1
  C  C114  1  0.89140000  0.51870000  0.63910000  1
  C  C115  1  0.91640000  0.54260000  0.66120000  1
  C  C116  1  0.93570000  0.52230000  0.70230000  1
  C  C117  1  0.92380000  0.48010000  0.72050000  1
  C  C118  1  0.19050000  0.72160000  0.70220000  1
  C  C119  1  0.13510000  0.70400000  0.68700000  1
  C  C120  1  0.11060000  0.72470000  0.64550000  1
  C  C121  1  0.06600000  0.70660000  0.63040000  1
  C  C122  1  0.03960000  0.66650000  0.65410000  1
  C  C123  1  0.05740000  0.64660000  0.69280000  1
  C  C124  1  0.11020000  0.66540000  0.70880000  1
  C  C125  1  0.99410000  0.64470000  0.63410000  1
  C  C126  1  0.94500000  0.58580000  0.63760000  1
  C  C127  1  0.93920000  0.64080000  0.57520000  1
  C  C128  1  0.98883000  0.58202000  0.06622000  1
  C  C129  1  0.02468000  0.54617000  0.03037000  1
  C  C130  1  0.98730000  0.29650000  0.60930000  1
  C  C131  1  0.03480000  0.31270000  0.56050000  1
  C  C132  1  0.11410000  0.29020000  0.53900000  1
  C  C133  1  0.15450000  0.30620000  0.49620000  1
  C  C134  1  0.11740000  0.34200000  0.47080000  1
  C  C135  1  0.03420000  0.36470000  0.48990000  1
  C  C136  1  0.99480000  0.35070000  0.53650000  1
  C  C137  1  0.00590000  0.58910000  0.28150000  1
  C  C138  1  0.04460000  0.54470000  0.30030000  1
  C  C139  1  0.00670000  0.52230000  0.34050000  1
  C  C140  1  0.04920000  0.48130000  0.36090000  1
  C  C141  1  0.12020000  0.45740000  0.33880000  1
  C  C142  1  0.16030000  0.47770000  0.29770000  1
  C  C143  1  0.12440000  0.51990000  0.27950000  1
  C  C144  1  0.61430000  0.27840000  0.29780000  1
  C  C145  1  0.52610000  0.29600000  0.31300000  1
  C  C146  1  0.48080000  0.27530000  0.35450000  1
  C  C147  1  0.40300000  0.29340000  0.36960000  1
  C  C148  1  0.36020000  0.33350000  0.34590000  1
  C  C149  1  0.39680000  0.35340000  0.30720000  1
  C  C150  1  0.48440000  0.33460000  0.29120000  1
  C  C151  1  0.27290000  0.35530000  0.36590000  1
  C  C152  1  0.16840000  0.41420000  0.36240000  1
  C  C153  1  0.15520000  0.35920000  0.42480000  1
  C  C154  1  0.63707000  0.41798000  0.93378000  1
  C  C155  1  0.60122000  0.45383000  0.96963000  1
  C  C156  1  0.71620000  0.39070000  0.29650000  1
  C  C157  1  0.65250000  0.43950000  0.31270000  1
  C  C158  1  0.59570000  0.46100000  0.29020000  1
  C  C159  1  0.53930000  0.50380000  0.30620000  1
  C  C160  1  0.54060000  0.52920000  0.34200000  1
  C  C161  1  0.60110000  0.51010000  0.36470000  1
  C  C162  1  0.65450000  0.46350000  0.35070000  1
  C  C163  1  0.40500000  0.71850000  0.58910000  1
  C  C164  1  0.41070000  0.69970000  0.54470000  1
  C  C165  1  0.47100000  0.65950000  0.52230000  1
  C  C166  1  0.46950000  0.63910000  0.48130000  1
  C  C167  1  0.42240000  0.66120000  0.45740000  1
  C  C168  1  0.36200000  0.70230000  0.47770000  1
  C  C169  1  0.35570000  0.72050000  0.51990000  1
  C  C170  1  0.10730000  0.70220000  0.27840000  1
  C  C171  1  0.17790000  0.68700000  0.29600000  1
  C  C172  1  0.24390000  0.64550000  0.27530000  1
  C  C173  1  0.30360000  0.63040000  0.29340000  1
  C  C174  1  0.30630000  0.65410000  0.33350000  1
  C  C175  1  0.24980000  0.69280000  0.35340000  1
  C  C176  1  0.18100000  0.70880000  0.33460000  1
  C  C177  1  0.37180000  0.63410000  0.35530000  1
  C  C178  1  0.41740000  0.63760000  0.41420000  1
  C  C179  1  0.48560000  0.57520000  0.35920000  1
  C  C180  1  0.94495000  0.06622000  0.41798000  1
  C  C181  1  0.94495000  0.03037000  0.45383000  1
  C  C182  1  0.40340000  0.60930000  0.70350000  1
  C  C183  1  0.40470000  0.56050000  0.68730000  1
  C  C184  1  0.34690000  0.53900000  0.70980000  1
  C  C185  1  0.34930000  0.49620000  0.69380000  1
  C  C186  1  0.41180000  0.47080000  0.65800000  1
  C  C187  1  0.47590000  0.48990000  0.63530000  1
  C  C188  1  0.46870000  0.53650000  0.64930000  1
  C  C189  1  0.71260000  0.28150000  0.41090000  1
  C  C190  1  0.65510000  0.30030000  0.45530000  1
  C  C191  1  0.65280000  0.34050000  0.47770000  1
  C  C192  1  0.58990000  0.36090000  0.51870000  1
  C  C193  1  0.54100000  0.33880000  0.54260000  1
  C  C194  1  0.54200000  0.29770000  0.52230000  1
  C  C195  1  0.59610000  0.27950000  0.48010000  1
  C  C196  1  0.08790000  0.29780000  0.72160000  1
  C  C197  1  0.16090000  0.31300000  0.70400000  1
  C  C198  1  0.16470000  0.35450000  0.72470000  1
  C  C199  1  0.22740000  0.36960000  0.70660000  1
  C  C200  1  0.29390000  0.34590000  0.66650000  1
  C  C201  1  0.29600000  0.30720000  0.64660000  1
  C  C202  1  0.22440000  0.29120000  0.66540000  1
  C  C203  1  0.36120000  0.36590000  0.64470000  1
  C  C204  1  0.46920000  0.36240000  0.58580000  1
  C  C205  1  0.42000000  0.42480000  0.64080000  1
  C  C206  1  0.42915000  0.93378000  0.58202000  1
  C  C207  1  0.42915000  0.96963000  0.54617000  1
  C  C208  1  0.98140000  0.14360000  0.64360000  1
  C  C209  1  0.01870000  0.10630000  0.60630000  1
  C  C210  1  0.75590000  0.36910000  0.86910000  1
  C  C211  1  0.71710000  0.40790000  0.90790000  1
  C  C212  1  0.64529000  0.47971000  0.97971000  1
  C  C213  1  0.76860000  0.85640000  0.35640000  1
  C  C214  1  0.73130000  0.89370000  0.39370000  1
  C  C215  1  0.99410000  0.63090000  0.13090000  1
  C  C216  1  0.03290000  0.59210000  0.09210000  1
  C  C217  1  0.10471000  0.52029000  0.02029000  1
  C  C218  1  0.87500000  0.35640000  0.14360000  1
  C  C219  1  0.87500000  0.39370000  0.10630000  1
  C  C220  1  0.87500000  0.13090000  0.36910000  1
  C  C221  1  0.87500000  0.09210000  0.40790000  1
  C  C222  1  0.87500000  0.02029000  0.47971000  1
  C  C223  1  0.37500000  0.64360000  0.85640000  1
  C  C224  1  0.37500000  0.60630000  0.89370000  1
  C  C225  1  0.37500000  0.86910000  0.63090000  1
  C  C226  1  0.37500000  0.90790000  0.59210000  1
  C  C227  1  0.37500000  0.97971000  0.52029000  1
  H  H228  1  0.79184000  0.05409000  0.76339000  1
  H  H229  1  0.76464000  0.98417000  0.79213000  1
  H  H230  1  0.88288000  0.97210000  0.88818000  1
  H  H231  1  0.89024000  0.05115000  0.86701000  1
  H  H232  1  0.90893000  0.85420000  0.03476000  1
  H  H233  1  0.86232000  0.89182000  0.97118000  1
  H  H234  1  0.79250000  0.78229000  0.96183000  1
  H  H235  1  0.81129000  0.75214000  0.03292000  1
  H  H236  1  0.62386000  0.87078000  0.74906000  1
  H  H237  1  0.69906000  0.89665000  0.77957000  1
  H  H238  1  0.71206000  0.79042000  0.87802000  1
  H  H239  1  0.62297000  0.76501000  0.84963000  1
  H  H240  1  0.81493000  0.42660000  0.90128000  1
  H  H241  1  0.75519000  0.48632000  0.96104000  1
  H  H242  1  0.44334000  0.87665000  0.82203000  1
  H  H243  1  0.44455000  0.83956000  0.85226000  1
  H  H244  1  0.98148000  0.09023000  0.60587000  1
  H  H245  1  0.03566000  0.12096000  0.57514000  1
  H  H246  1  0.06371000  0.08295000  0.61315000  1
  H  H247  1  0.60932000  0.94591000  0.23661000  1
  H  H248  1  0.54094000  0.01583000  0.20787000  1
  H  H249  1  0.74316000  0.02790000  0.11182000  1
  H  H250  1  0.80840000  0.94885000  0.13299000  1
  H  H251  1  0.79789000  0.14580000  0.96524000  1
  H  H252  1  0.72532000  0.10818000  0.02882000  1
  H  H253  1  0.53662000  0.21771000  0.03817000  1
  H  H254  1  0.59635000  0.24786000  0.96708000  1
  H  H255  1  0.24370000  0.12922000  0.25094000  1
  H  H256  1  0.37528000  0.10335000  0.22043000  1
  H  H257  1  0.38050000  0.20958000  0.12198000  1
  H  H258  1  0.23761000  0.23499000  0.15037000  1
  H  H259  1  0.14281000  0.57340000  0.09872000  1
  H  H260  1  0.20255000  0.51368000  0.03896000  1
  H  H261  1  0.14202000  0.12335000  0.17797000  1
  H  H262  1  0.13637000  0.16044000  0.14774000  1
  H  H263  1  0.67758000  0.90977000  0.39413000  1
  H  H264  1  0.73176000  0.87904000  0.42486000  1
  H  H265  1  0.75981000  0.91705000  0.38685000  1
  H  H266  1  0.15407000  0.23661000  0.05409000  1
  H  H267  1  0.25119000  0.20787000  0.98417000  1
  H  H268  1  0.14502000  0.11182000  0.97210000  1
  H  H269  1  0.05861000  0.13299000  0.05115000  1
  H  H270  1  0.23687000  0.96524000  0.85420000  1
  H  H271  1  0.24586000  0.02882000  0.89182000  1
  H  H272  1  0.42521000  0.03817000  0.78229000  1
  H  H273  1  0.43657000  0.96708000  0.75214000  1
  H  H274  1  0.50536000  0.25094000  0.87078000  1
  H  H275  1  0.40429000  0.22043000  0.89665000  1
  H  H276  1  0.49752000  0.12198000  0.79042000  1
  H  H277  1  0.61202000  0.15037000  0.76501000  1
  H  H278  1  0.75847000  0.09872000  0.42660000  1
  H  H279  1  0.75849000  0.03896000  0.48632000  1
  H  H280  1  0.68001000  0.17797000  0.87665000  1
  H  H281  1  0.71589000  0.14774000  0.83956000  1
  H  H282  1  0.44477000  0.76339000  0.94591000  1
  H  H283  1  0.44323000  0.79213000  0.01583000  1
  H  H284  1  0.22894000  0.88818000  0.02790000  1
  H  H285  1  0.24275000  0.86701000  0.94885000  1
  H  H286  1  0.05631000  0.03476000  0.14580000  1
  H  H287  1  0.16650000  0.97118000  0.10818000  1
  H  H288  1  0.24567000  0.96183000  0.21771000  1
  H  H289  1  0.15579000  0.03292000  0.24786000  1
  H  H290  1  0.62708000  0.74906000  0.12922000  1
  H  H291  1  0.52137000  0.77957000  0.10335000  1
  H  H292  1  0.40992000  0.87802000  0.20958000  1
  H  H293  1  0.52740000  0.84963000  0.23499000  1
  H  H294  1  0.28379000  0.90128000  0.57340000  1
  H  H295  1  0.28377000  0.96104000  0.51368000  1
  H  H296  1  0.73463000  0.82203000  0.12335000  1
  H  H297  1  0.70319000  0.85226000  0.16044000  1
  H  H298  1  0.41265000  0.60587000  0.90977000  1
  H  H299  1  0.38920000  0.57514000  0.87904000  1
  H  H300  1  0.32314000  0.61315000  0.91705000  1
  H  H301  1  0.95816000  0.73661000  0.44591000  1
  H  H302  1  0.98536000  0.70787000  0.51583000  1
  H  H303  1  0.86712000  0.61182000  0.52790000  1
  H  H304  1  0.85976000  0.63299000  0.44885000  1
  H  H305  1  0.84107000  0.46524000  0.64580000  1
  H  H306  1  0.88768000  0.52882000  0.60818000  1
  H  H307  1  0.95750000  0.53817000  0.71771000  1
  H  H308  1  0.93871000  0.46708000  0.74786000  1
  H  H309  1  0.12614000  0.75094000  0.62922000  1
  H  H310  1  0.05094000  0.72043000  0.60335000  1
  H  H311  1  0.03794000  0.62198000  0.70958000  1
  H  H312  1  0.12703000  0.65037000  0.73499000  1
  H  H313  1  0.93507000  0.59872000  0.07340000  1
  H  H314  1  0.99481000  0.53896000  0.01368000  1
  H  H315  1  0.30666000  0.67797000  0.62335000  1
  H  H316  1  0.30545000  0.64774000  0.66044000  1
  H  H317  1  0.14068000  0.26339000  0.55409000  1
  H  H318  1  0.20906000  0.29213000  0.48417000  1
  H  H319  1  0.00684000  0.38818000  0.47210000  1
  H  H320  1  0.94160000  0.36701000  0.55115000  1
  H  H321  1  0.95211000  0.53476000  0.35420000  1
  H  H322  1  0.02468000  0.47118000  0.39182000  1
  H  H323  1  0.21338000  0.46183000  0.28229000  1
  H  H324  1  0.15365000  0.53292000  0.25214000  1
  H  H325  1  0.50630000  0.24906000  0.37078000  1
  H  H326  1  0.37472000  0.27957000  0.39665000  1
  H  H327  1  0.36950000  0.37802000  0.29042000  1
  H  H328  1  0.51239000  0.34963000  0.26501000  1
  H  H329  1  0.60719000  0.40128000  0.92660000  1
  H  H330  1  0.54745000  0.46104000  0.98632000  1
  H  H331  1  0.60798000  0.32203000  0.37665000  1
  H  H332  1  0.61363000  0.35226000  0.33956000  1
  H  H333  1  0.59593000  0.44591000  0.26339000  1
  H  H334  1  0.49881000  0.51583000  0.29213000  1
  H  H335  1  0.60498000  0.52790000  0.38818000  1
  H  H336  1  0.69139000  0.44885000  0.36701000  1
  H  H337  1  0.51313000  0.64580000  0.53476000  1
  H  H338  1  0.50414000  0.60818000  0.47118000  1
  H  H339  1  0.32479000  0.71771000  0.46183000  1
  H  H340  1  0.31343000  0.74786000  0.53292000  1
  H  H341  1  0.24464000  0.62922000  0.24906000  1
  H  H342  1  0.34571000  0.60335000  0.27957000  1
  H  H343  1  0.25248000  0.70958000  0.37802000  1
  H  H344  1  0.13798000  0.73499000  0.34963000  1
  H  H345  1  0.99153000  0.07340000  0.40128000  1
  H  H346  1  0.99151000  0.01368000  0.46104000  1
  H  H347  1  0.06999000  0.62335000  0.32203000  1
  H  H348  1  0.03411000  0.66044000  0.35226000  1
  H  H349  1  0.82171000  0.40977000  0.10587000  1
  H  H350  1  0.90662000  0.37904000  0.07514000  1
  H  H351  1  0.89666000  0.41705000  0.11315000  1
  H  H352  1  0.30523000  0.55409000  0.73661000  1
  H  H353  1  0.30677000  0.48417000  0.70787000  1
  H  H354  1  0.52106000  0.47210000  0.61182000  1
  H  H355  1  0.50725000  0.55115000  0.63299000  1
  H  H356  1  0.69369000  0.35420000  0.46524000  1
  H  H357  1  0.58350000  0.39182000  0.52882000  1
  H  H358  1  0.50433000  0.28229000  0.53817000  1
  H  H359  1  0.59421000  0.25214000  0.46708000  1
  H  H360  1  0.12292000  0.37078000  0.75094000  1
  H  H361  1  0.22863000  0.39665000  0.72043000  1
  H  H362  1  0.34008000  0.29042000  0.62198000  1
  H  H363  1  0.22260000  0.26501000  0.65037000  1
  H  H364  1  0.46621000  0.92660000  0.59872000  1
  H  H365  1  0.46623000  0.98632000  0.53896000  1
  H  H366  1  0.01537000  0.37665000  0.67797000  1
  H  H367  1  0.04681000  0.33956000  0.64774000  1
  H  H368  1  0.62136000  0.50364000  0.00364000  1
  H  H369  1  0.12864000  0.49636000  0.99636000  1
  H  H370  1  0.87500000  0.99636000  0.50364000  1
  H  H371  1  0.37500000  0.00364000  0.49636000  1
  N  N372  1  0.76770000  0.90830000  0.83730000  1
  N  N373  1  0.82630000  0.90430000  0.89790000  1
  N  N374  1  0.77180000  0.84210000  0.89430000  1
  N  N375  1  0.51330000  0.09170000  0.16270000  1
  N  N376  1  0.62850000  0.09570000  0.10210000  1
  N  N377  1  0.50820000  0.15790000  0.10570000  1
  N  N378  1  0.32400000  0.16270000  0.90830000  1
  N  N379  1  0.26940000  0.10210000  0.90430000  1
  N  N380  1  0.38610000  0.10570000  0.84210000  1
  N  N381  1  0.39500000  0.83730000  0.09170000  1
  N  N382  1  0.27580000  0.89790000  0.09570000  1
  N  N383  1  0.33390000  0.89430000  0.15790000  1
  N  N384  1  0.98230000  0.66270000  0.59170000  1
  N  N385  1  0.92370000  0.60210000  0.59570000  1
  N  N386  1  0.97820000  0.60570000  0.65790000  1
  N  N387  1  0.23670000  0.33730000  0.40830000  1
  N  N388  1  0.12150000  0.39790000  0.40430000  1
  N  N389  1  0.24180000  0.39430000  0.34210000  1
  N  N390  1  0.42600000  0.59170000  0.33730000  1
  N  N391  1  0.48060000  0.59570000  0.39790000  1
  N  N392  1  0.36390000  0.65790000  0.39430000  1
  N  N393  1  0.35500000  0.40830000  0.66270000  1
  N  N394  1  0.47420000  0.40430000  0.60210000  1
  N  N395  1  0.41610000  0.34210000  0.60570000  1
  O  O396  1  0.88630000  0.12640000  0.82140000  1
  O  O397  1  0.83020000  0.12822000  0.76218000  1
  O  O398  1  0.90551000  0.80268000  0.10810000  1
  O  O399  1  0.85035000  0.74435000  0.10855000  1
  O  O400  1  0.54190000  0.76188000  0.79992000  1
  O  O401  1  0.53960000  0.81993000  0.74267000  1
  O  O402  1  0.97448000  0.24208000  0.77716000  1
  O  O403  1  0.93539000  0.30231000  0.71691000  1
  O  O404  1  0.93430000  0.18330000  0.74590000  1
  O  O405  1  0.84130000  0.27502000  0.83438000  1
  O  O406  1  0.02930000  0.17100000  0.64900000  1
  O  O407  1  0.83536000  0.37304000  0.84904000  1
  O  O408  1  0.02580000  0.14290000  0.80990000  1
  O  O409  1  0.43030000  0.86900000  0.85120000  1
  O  O410  1  0.83410000  0.87360000  0.17860000  1
  O  O411  1  0.72060000  0.87178000  0.23782000  1
  O  O412  1  0.81629000  0.19732000  0.89190000  1
  O  O413  1  0.70325000  0.25565000  0.89145000  1
  O  O414  1  0.10370000  0.23812000  0.20008000  1
  O  O415  1  0.10220000  0.18007000  0.25733000  1
  O  O416  1  0.99372000  0.75792000  0.22284000  1
  O  O417  1  0.95461000  0.69769000  0.28309000  1
  O  O418  1  0.86350000  0.81670000  0.25410000  1
  O  O419  1  0.95070000  0.72498000  0.16562000  1
  O  O420  1  0.84930000  0.82900000  0.35100000  1
  O  O421  1  0.05744000  0.62696000  0.15096000  1
  O  O422  1  0.97860000  0.85710000  0.19010000  1
  O  O423  1  0.15050000  0.13100000  0.14880000  1
  O  O424  1  0.98730000  0.17860000  0.12640000  1
  O  O425  1  0.04158000  0.23782000  0.12822000  1
  O  O426  1  0.29181000  0.89190000  0.80268000  1
  O  O427  1  0.40530000  0.89145000  0.74435000  1
  O  O428  1  0.69622000  0.20008000  0.76188000  1
  O  O429  1  0.64047000  0.25733000  0.81993000  1
  O  O430  1  0.78344000  0.22284000  0.24208000  1
  O  O431  1  0.76230000  0.28309000  0.30231000  1
  O  O432  1  0.88240000  0.25410000  0.18330000  1
  O  O433  1  0.88368000  0.16562000  0.27502000  1
  O  O434  1  0.79970000  0.35100000  0.17100000  1
  O  O435  1  0.79160000  0.15096000  0.37304000  1
  O  O436  1  0.83130000  0.19010000  0.14290000  1
  O  O437  1  0.70070000  0.14880000  0.86900000  1
  O  O438  1  0.29230000  0.82140000  0.87360000  1
  O  O439  1  0.40762000  0.76218000  0.87178000  1
  O  O440  1  0.98639000  0.10810000  0.19732000  1
  O  O441  1  0.04110000  0.10855000  0.25565000  1
  O  O442  1  0.65818000  0.79992000  0.23812000  1
  O  O443  1  0.71773000  0.74267000  0.18007000  1
  O  O444  1  0.24836000  0.77716000  0.75792000  1
  O  O445  1  0.34770000  0.71691000  0.69769000  1
  O  O446  1  0.31980000  0.74590000  0.81670000  1
  O  O447  1  0.32432000  0.83438000  0.72498000  1
  O  O448  1  0.32170000  0.64900000  0.82900000  1
  O  O449  1  0.31560000  0.84904000  0.62696000  1
  O  O450  1  0.16430000  0.80990000  0.85710000  1
  O  O451  1  0.71850000  0.85120000  0.13100000  1
  O  O452  1  0.86370000  0.67860000  0.37360000  1
  O  O453  1  0.91980000  0.73782000  0.37178000  1
  O  O454  1  0.84449000  0.39190000  0.69732000  1
  O  O455  1  0.89965000  0.39145000  0.75565000  1
  O  O456  1  0.20810000  0.70008000  0.73812000  1
  O  O457  1  0.21040000  0.75733000  0.68007000  1
  O  O458  1  0.77552000  0.72284000  0.25792000  1
  O  O459  1  0.81461000  0.78309000  0.19769000  1
  O  O460  1  0.81570000  0.75410000  0.31670000  1
  O  O461  1  0.90870000  0.66562000  0.22498000  1
  O  O462  1  0.72070000  0.85100000  0.32900000  1
  O  O463  1  0.91464000  0.65096000  0.12696000  1
  O  O464  1  0.72420000  0.69010000  0.35710000  1
  O  O465  1  0.31970000  0.64880000  0.63100000  1
  O  O466  1  0.91590000  0.32140000  0.62640000  1
  O  O467  1  0.02940000  0.26218000  0.62822000  1
  O  O468  1  0.93371000  0.60810000  0.30268000  1
  O  O469  1  0.04675000  0.60855000  0.24435000  1
  O  O470  1  0.64630000  0.29992000  0.26188000  1
  O  O471  1  0.64780000  0.24267000  0.31993000  1
  O  O472  1  0.75628000  0.27716000  0.74208000  1
  O  O473  1  0.79539000  0.21691000  0.80231000  1
  O  O474  1  0.88650000  0.24590000  0.68330000  1
  O  O475  1  0.79930000  0.33438000  0.77502000  1
  O  O476  1  0.90070000  0.14900000  0.67100000  1
  O  O477  1  0.69256000  0.34904000  0.87304000  1
  O  O478  1  0.77140000  0.30990000  0.64290000  1
  O  O479  1  0.59950000  0.35120000  0.36900000  1
  O  O480  1  0.76270000  0.37360000  0.32140000  1
  O  O481  1  0.70842000  0.37178000  0.26218000  1
  O  O482  1  0.45819000  0.69732000  0.60810000  1
  O  O483  1  0.34470000  0.75565000  0.60855000  1
  O  O484  1  0.05378000  0.73812000  0.29992000  1
  O  O485  1  0.10953000  0.68007000  0.24267000  1
  O  O486  1  0.96656000  0.25792000  0.27716000  1
  O  O487  1  0.98770000  0.19769000  0.21691000  1
  O  O488  1  0.86760000  0.31670000  0.24590000  1
  O  O489  1  0.86632000  0.22498000  0.33438000  1
  O  O490  1  0.95030000  0.32900000  0.14900000  1
  O  O491  1  0.95840000  0.12696000  0.34904000  1
  O  O492  1  0.91870000  0.35710000  0.30990000  1
  O  O493  1  0.04930000  0.63100000  0.35120000  1
  O  O494  1  0.45770000  0.62640000  0.67860000  1
  O  O495  1  0.34238000  0.62822000  0.73782000  1
  O  O496  1  0.76361000  0.30268000  0.39190000  1
  O  O497  1  0.70890000  0.24435000  0.39145000  1
  O  O498  1  0.09182000  0.26188000  0.70008000  1
  O  O499  1  0.03227000  0.31993000  0.75733000  1
  O  O500  1  0.50164000  0.74208000  0.72284000  1
  O  O501  1  0.40230000  0.80231000  0.78309000  1
  O  O502  1  0.43020000  0.68330000  0.75410000  1
  O  O503  1  0.42568000  0.77502000  0.66562000  1
  O  O504  1  0.42830000  0.67100000  0.85100000  1
  O  O505  1  0.43440000  0.87304000  0.65096000  1
  O  O506  1  0.58570000  0.64290000  0.69010000  1
  O  O507  1  0.03150000  0.36900000  0.64880000  1
  Zr  Zr508  1  0.90429000  0.19917000  0.82071000  1
  Zr  Zr509  1  0.90995000  0.31898000  0.79122000  1
  Zr  Zr510  1  0.99940000  0.22845000  0.70107000  1
  Zr  Zr511  1  0.92417000  0.80083000  0.17929000  1
  Zr  Zr512  1  0.02015000  0.68102000  0.20878000  1
  Zr  Zr513  1  0.92892000  0.77155000  0.29893000  1
  Zr  Zr514  1  0.89654000  0.17929000  0.19917000  1
  Zr  Zr515  1  0.77107000  0.20878000  0.31898000  1
  Zr  Zr516  1  0.77215000  0.29893000  0.22845000  1
  Zr  Zr517  1  0.27500000  0.82071000  0.80083000  1
  Zr  Zr518  1  0.29883000  0.79122000  0.68102000  1
  Zr  Zr519  1  0.29953000  0.70107000  0.77155000  1
  Zr  Zr520  1  0.84571000  0.67929000  0.30083000  1
  Zr  Zr521  1  0.84005000  0.70878000  0.18102000  1
  Zr  Zr522  1  0.75060000  0.79893000  0.27155000  1
  Zr  Zr523  1  0.82583000  0.32071000  0.69917000  1
  Zr  Zr524  1  0.72985000  0.29122000  0.81898000  1
  Zr  Zr525  1  0.82108000  0.20107000  0.72845000  1
  Zr  Zr526  1  0.85346000  0.30083000  0.32071000  1
  Zr  Zr527  1  0.97893000  0.18102000  0.29122000  1
  Zr  Zr528  1  0.97785000  0.27155000  0.20107000  1
  Zr  Zr529  1  0.47500000  0.69917000  0.67929000  1
  Zr  Zr530  1  0.45117000  0.81898000  0.70878000  1
  Zr  Zr531  1  0.45047000  0.72845000  0.79893000  1
