# generated using pymatgen
data_Zr3H24C44(NO6)2
_symmetry_space_group_name_H-M   'P 1'
_cell_length_a   20.65680000
_cell_length_b   20.65680000
_cell_length_c   36.40239026
_cell_angle_alpha   106.48286715
_cell_angle_beta   106.48286715
_cell_angle_gamma   90.00000000
_symmetry_Int_Tables_number   1
_chemical_formula_structural   Zr3H24C44(NO6)2
_chemical_formula_sum   'Zr12 H96 C176 N8 O48'
_cell_volume   14227.74168875
_cell_formula_units_Z   4
loop_
 _symmetry_equiv_pos_site_id
 _symmetry_equiv_pos_as_xyz
  1  'x, y, z'
loop_
 _atom_site_type_symbol
 _atom_site_label
 _atom_site_symmetry_multiplicity
 _atom_site_fract_x
 _atom_site_fract_y
 _atom_site_fract_z
 _atom_site_occupancy
  C  C0  1  0.46759000  0.42692000  0.15364000  1
  C  C1  1  0.41320000  0.44477000  0.12214000  1
  C  C2  1  0.41455000  0.42411000  0.08322000  1
  C  C3  1  0.36524000  0.44146000  0.05372000  1
  C  C4  1  0.31088000  0.47429000  0.06238000  1
  C  C5  1  0.30924000  0.49264000  0.10168000  1
  C  C6  1  0.36044000  0.47804000  0.13108000  1
  C  C7  1  0.25579000  0.48990000  0.03020000  1
  C  C8  1  0.19058000  0.49010000  0.03200000  1
  C  C9  1  0.04990000  0.49990000  0.02920000  1
  C  C10  1  0.13980000  0.50000000  0.00000000  1
  C  C11  1  0.06740000  0.50000000  0.00000000  1
  C  C12  1  0.22672000  0.46759000  0.65364000  1
  C  C13  1  0.17737000  0.41320000  0.62214000  1
  C  C14  1  0.15911000  0.41455000  0.58322000  1
  C  C15  1  0.11226000  0.36524000  0.55372000  1
  C  C16  1  0.08809000  0.31088000  0.56238000  1
  C  C17  1  0.10904000  0.30924000  0.60168000  1
  C  C18  1  0.15304000  0.36044000  0.63108000  1
  C  C19  1  0.04030000  0.25579000  0.53020000  1
  C  C20  1  0.04190000  0.19058000  0.53200000  1
  C  C21  1  0.02930000  0.04990000  0.52920000  1
  C  C22  1  0.00000000  0.13980000  0.50000000  1
  C  C23  1  1.00000000  0.06740000  0.50000000  1
  C  C24  1  0.68605000  0.22672000  0.15364000  1
  C  C25  1  0.70894000  0.17737000  0.12214000  1
  C  C26  1  0.66867000  0.15911000  0.08322000  1
  C  C27  1  0.68848000  0.11226000  0.05372000  1
  C  C28  1  0.75150000  0.08809000  0.06238000  1
  C  C29  1  0.79244000  0.10904000  0.10168000  1
  C  C30  1  0.77064000  0.15304000  0.13108000  1
  C  C31  1  0.77441000  0.04030000  0.03020000  1
  C  C32  1  0.84142000  0.04190000  0.03200000  1
  C  C33  1  0.97930000  0.02930000  0.02920000  1
  C  C34  1  0.86020000  0.00000000  0.00000000  1
  C  C35  1  0.93260000  0.00000000  0.00000000  1
  C  C36  1  0.42692000  0.68605000  0.65364000  1
  C  C37  1  0.44477000  0.70894000  0.62214000  1
  C  C38  1  0.42411000  0.66867000  0.58322000  1
  C  C39  1  0.44146000  0.68848000  0.55372000  1
  C  C40  1  0.47429000  0.75150000  0.56238000  1
  C  C41  1  0.49264000  0.79244000  0.60168000  1
  C  C42  1  0.47804000  0.77064000  0.63108000  1
  C  C43  1  0.48990000  0.77441000  0.53020000  1
  C  C44  1  0.49010000  0.84142000  0.53200000  1
  C  C45  1  0.49990000  0.97930000  0.52920000  1
  C  C46  1  0.50000000  0.86020000  0.50000000  1
  C  C47  1  0.50000000  0.93260000  0.50000000  1
  C  C48  1  0.31395000  0.57308000  0.84636000  1
  C  C49  1  0.29106000  0.55523000  0.87786000  1
  C  C50  1  0.33133000  0.57589000  0.91678000  1
  C  C51  1  0.31152000  0.55854000  0.94628000  1
  C  C52  1  0.24850000  0.52571000  0.93762000  1
  C  C53  1  0.20756000  0.50736000  0.89832000  1
  C  C54  1  0.22936000  0.52196000  0.86892000  1
  C  C55  1  0.22559000  0.51010000  0.96980000  1
  C  C56  1  0.15858000  0.50990000  0.96800000  1
  C  C57  1  0.02070000  0.50010000  0.97080000  1
  C  C58  1  0.77328000  0.31395000  0.34636000  1
  C  C59  1  0.82263000  0.29106000  0.37786000  1
  C  C60  1  0.84089000  0.33133000  0.41678000  1
  C  C61  1  0.88774000  0.31152000  0.44628000  1
  C  C62  1  0.91191000  0.24850000  0.43762000  1
  C  C63  1  0.89096000  0.20756000  0.39832000  1
  C  C64  1  0.84696000  0.22936000  0.36892000  1
  C  C65  1  0.95970000  0.22559000  0.46980000  1
  C  C66  1  0.95810000  0.15858000  0.46800000  1
  C  C67  1  0.97070000  0.02070000  0.47080000  1
  C  C68  1  0.53241000  0.77328000  0.84636000  1
  C  C69  1  0.58680000  0.82263000  0.87786000  1
  C  C70  1  0.58545000  0.84089000  0.91678000  1
  C  C71  1  0.63476000  0.88774000  0.94628000  1
  C  C72  1  0.68912000  0.91191000  0.93762000  1
  C  C73  1  0.69076000  0.89096000  0.89832000  1
  C  C74  1  0.63956000  0.84696000  0.86892000  1
  C  C75  1  0.74421000  0.95970000  0.96980000  1
  C  C76  1  0.80942000  0.95810000  0.96800000  1
  C  C77  1  0.95010000  0.97070000  0.97080000  1
  C  C78  1  0.57308000  0.53241000  0.34636000  1
  C  C79  1  0.55523000  0.58680000  0.37786000  1
  C  C80  1  0.57589000  0.58545000  0.41678000  1
  C  C81  1  0.55854000  0.63476000  0.44628000  1
  C  C82  1  0.52571000  0.68912000  0.43762000  1
  C  C83  1  0.50736000  0.69076000  0.39832000  1
  C  C84  1  0.52196000  0.63956000  0.36892000  1
  C  C85  1  0.51010000  0.74421000  0.46980000  1
  C  C86  1  0.50990000  0.80942000  0.46800000  1
  C  C87  1  0.50010000  0.95010000  0.47080000  1
  C  C88  1  0.53241000  0.57308000  0.84636000  1
  C  C89  1  0.58680000  0.55523000  0.87786000  1
  C  C90  1  0.58545000  0.57589000  0.91678000  1
  C  C91  1  0.63476000  0.55854000  0.94628000  1
  C  C92  1  0.68912000  0.52571000  0.93762000  1
  C  C93  1  0.69076000  0.50736000  0.89832000  1
  C  C94  1  0.63956000  0.52196000  0.86892000  1
  C  C95  1  0.74421000  0.51010000  0.96980000  1
  C  C96  1  0.80942000  0.50990000  0.96800000  1
  C  C97  1  0.95010000  0.50010000  0.97080000  1
  C  C98  1  0.86020000  0.50000000  0.00000000  1
  C  C99  1  0.93260000  0.50000000  0.00000000  1
  C  C100  1  0.77328000  0.53241000  0.34636000  1
  C  C101  1  0.82263000  0.58680000  0.37786000  1
  C  C102  1  0.84089000  0.58545000  0.41678000  1
  C  C103  1  0.88774000  0.63476000  0.44628000  1
  C  C104  1  0.91191000  0.68912000  0.43762000  1
  C  C105  1  0.89096000  0.69076000  0.39832000  1
  C  C106  1  0.84696000  0.63956000  0.36892000  1
  C  C107  1  0.95970000  0.74421000  0.46980000  1
  C  C108  1  0.95810000  0.80942000  0.46800000  1
  C  C109  1  0.97070000  0.95010000  0.47080000  1
  C  C110  1  1.00000000  0.86020000  0.50000000  1
  C  C111  1  1.00000000  0.93260000  0.50000000  1
  C  C112  1  0.31395000  0.77328000  0.84636000  1
  C  C113  1  0.29106000  0.82263000  0.87786000  1
  C  C114  1  0.33133000  0.84089000  0.91678000  1
  C  C115  1  0.31152000  0.88774000  0.94628000  1
  C  C116  1  0.24850000  0.91191000  0.93762000  1
  C  C117  1  0.20756000  0.89096000  0.89832000  1
  C  C118  1  0.22936000  0.84696000  0.86892000  1
  C  C119  1  0.22559000  0.95970000  0.96980000  1
  C  C120  1  0.15858000  0.95810000  0.96800000  1
  C  C121  1  0.02070000  0.97070000  0.97080000  1
  C  C122  1  0.13980000  0.00000000  0.00000000  1
  C  C123  1  0.06740000  0.00000000  0.00000000  1
  C  C124  1  0.57308000  0.31395000  0.34636000  1
  C  C125  1  0.55523000  0.29106000  0.37786000  1
  C  C126  1  0.57589000  0.33133000  0.41678000  1
  C  C127  1  0.55854000  0.31152000  0.44628000  1
  C  C128  1  0.52571000  0.24850000  0.43762000  1
  C  C129  1  0.50736000  0.20756000  0.39832000  1
  C  C130  1  0.52196000  0.22936000  0.36892000  1
  C  C131  1  0.51010000  0.22559000  0.46980000  1
  C  C132  1  0.50990000  0.15858000  0.46800000  1
  C  C133  1  0.50010000  0.02070000  0.47080000  1
  C  C134  1  0.50000000  0.13980000  0.50000000  1
  C  C135  1  0.50000000  0.06740000  0.50000000  1
  C  C136  1  0.68605000  0.42692000  0.15364000  1
  C  C137  1  0.70894000  0.44477000  0.12214000  1
  C  C138  1  0.66867000  0.42411000  0.08322000  1
  C  C139  1  0.68848000  0.44146000  0.05372000  1
  C  C140  1  0.75150000  0.47429000  0.06238000  1
  C  C141  1  0.79244000  0.49264000  0.10168000  1
  C  C142  1  0.77064000  0.47804000  0.13108000  1
  C  C143  1  0.77441000  0.48990000  0.03020000  1
  C  C144  1  0.84142000  0.49010000  0.03200000  1
  C  C145  1  0.97930000  0.49990000  0.02920000  1
  C  C146  1  0.22672000  0.68605000  0.65364000  1
  C  C147  1  0.17737000  0.70894000  0.62214000  1
  C  C148  1  0.15911000  0.66867000  0.58322000  1
  C  C149  1  0.11226000  0.68848000  0.55372000  1
  C  C150  1  0.08809000  0.75150000  0.56238000  1
  C  C151  1  0.10904000  0.79244000  0.60168000  1
  C  C152  1  0.15304000  0.77064000  0.63108000  1
  C  C153  1  0.04030000  0.77441000  0.53020000  1
  C  C154  1  0.04190000  0.84142000  0.53200000  1
  C  C155  1  0.02930000  0.97930000  0.52920000  1
  C  C156  1  0.46759000  0.22672000  0.15364000  1
  C  C157  1  0.41320000  0.17737000  0.12214000  1
  C  C158  1  0.41455000  0.15911000  0.08322000  1
  C  C159  1  0.36524000  0.11226000  0.05372000  1
  C  C160  1  0.31088000  0.08809000  0.06238000  1
  C  C161  1  0.30924000  0.10904000  0.10168000  1
  C  C162  1  0.36044000  0.15304000  0.13108000  1
  C  C163  1  0.25579000  0.04030000  0.03020000  1
  C  C164  1  0.19058000  0.04190000  0.03200000  1
  C  C165  1  0.04990000  0.02930000  0.02920000  1
  C  C166  1  0.42692000  0.46759000  0.65364000  1
  C  C167  1  0.44477000  0.41320000  0.62214000  1
  C  C168  1  0.42411000  0.41455000  0.58322000  1
  C  C169  1  0.44146000  0.36524000  0.55372000  1
  C  C170  1  0.47429000  0.31088000  0.56238000  1
  C  C171  1  0.49264000  0.30924000  0.60168000  1
  C  C172  1  0.47804000  0.36044000  0.63108000  1
  C  C173  1  0.48990000  0.25579000  0.53020000  1
  C  C174  1  0.49010000  0.19058000  0.53200000  1
  C  C175  1  0.49990000  0.04990000  0.52920000  1
  H  H176  1  0.44950000  0.39780000  0.07640000  1
  H  H177  1  0.36890000  0.43060000  0.02720000  1
  H  H178  1  0.27250000  0.51560000  0.10840000  1
  H  H179  1  0.35880000  0.49140000  0.15800000  1
  H  H180  1  0.18010000  0.48370000  0.05460000  1
  H  H181  1  0.08380000  0.49990000  0.05320000  1
  H  H182  1  0.17860000  0.44950000  0.57640000  1
  H  H183  1  0.09660000  0.36890000  0.52720000  1
  H  H184  1  0.09280000  0.27250000  0.60840000  1
  H  H185  1  0.16660000  0.35880000  0.65800000  1
  H  H186  1  0.07090000  0.18010000  0.55460000  1
  H  H187  1  0.05330000  0.08380000  0.55320000  1
  H  H188  1  0.62690000  0.17860000  0.07640000  1
  H  H189  1  0.65830000  0.09660000  0.02720000  1
  H  H190  1  0.83590000  0.09280000  0.10840000  1
  H  H191  1  0.79920000  0.16660000  0.15800000  1
  H  H192  1  0.87450000  0.07090000  0.05460000  1
  H  H193  1  0.96940000  0.05330000  0.05320000  1
  H  H194  1  0.39780000  0.62690000  0.57640000  1
  H  H195  1  0.43060000  0.65830000  0.52720000  1
  H  H196  1  0.51560000  0.83590000  0.60840000  1
  H  H197  1  0.49140000  0.79920000  0.65800000  1
  H  H198  1  0.48370000  0.87450000  0.55460000  1
  H  H199  1  0.49990000  0.96940000  0.55320000  1
  H  H200  1  0.37310000  0.60220000  0.92360000  1
  H  H201  1  0.34170000  0.56940000  0.97280000  1
  H  H202  1  0.16410000  0.48440000  0.89160000  1
  H  H203  1  0.20080000  0.50860000  0.84200000  1
  H  H204  1  0.12550000  0.51630000  0.94540000  1
  H  H205  1  0.03060000  0.50010000  0.94680000  1
  H  H206  1  0.82140000  0.37310000  0.42360000  1
  H  H207  1  0.90340000  0.34170000  0.47280000  1
  H  H208  1  0.90720000  0.16410000  0.39160000  1
  H  H209  1  0.83340000  0.20080000  0.34200000  1
  H  H210  1  0.92910000  0.12550000  0.44540000  1
  H  H211  1  0.94670000  0.03060000  0.44680000  1
  H  H212  1  0.55050000  0.82140000  0.92360000  1
  H  H213  1  0.63110000  0.90340000  0.97280000  1
  H  H214  1  0.72750000  0.90720000  0.89160000  1
  H  H215  1  0.64120000  0.83340000  0.84200000  1
  H  H216  1  0.81990000  0.92910000  0.94540000  1
  H  H217  1  0.91620000  0.94670000  0.94680000  1
  H  H218  1  0.60220000  0.55050000  0.42360000  1
  H  H219  1  0.56940000  0.63110000  0.47280000  1
  H  H220  1  0.48440000  0.72750000  0.39160000  1
  H  H221  1  0.50860000  0.64120000  0.34200000  1
  H  H222  1  0.51630000  0.81990000  0.44540000  1
  H  H223  1  0.50010000  0.91620000  0.44680000  1
  H  H224  1  0.55050000  0.60220000  0.92360000  1
  H  H225  1  0.63110000  0.56940000  0.97280000  1
  H  H226  1  0.72750000  0.48440000  0.89160000  1
  H  H227  1  0.64120000  0.50860000  0.84200000  1
  H  H228  1  0.81990000  0.51630000  0.94540000  1
  H  H229  1  0.91620000  0.50010000  0.94680000  1
  H  H230  1  0.82140000  0.55050000  0.42360000  1
  H  H231  1  0.90340000  0.63110000  0.47280000  1
  H  H232  1  0.90720000  0.72750000  0.39160000  1
  H  H233  1  0.83340000  0.64120000  0.34200000  1
  H  H234  1  0.92910000  0.81990000  0.44540000  1
  H  H235  1  0.94670000  0.91620000  0.44680000  1
  H  H236  1  0.37310000  0.82140000  0.92360000  1
  H  H237  1  0.34170000  0.90340000  0.97280000  1
  H  H238  1  0.16410000  0.90720000  0.89160000  1
  H  H239  1  0.20080000  0.83340000  0.84200000  1
  H  H240  1  0.12550000  0.92910000  0.94540000  1
  H  H241  1  0.03060000  0.94670000  0.94680000  1
  H  H242  1  0.60220000  0.37310000  0.42360000  1
  H  H243  1  0.56940000  0.34170000  0.47280000  1
  H  H244  1  0.48440000  0.16410000  0.39160000  1
  H  H245  1  0.50860000  0.20080000  0.34200000  1
  H  H246  1  0.51630000  0.12550000  0.44540000  1
  H  H247  1  0.50010000  0.03060000  0.44680000  1
  H  H248  1  0.62690000  0.39780000  0.07640000  1
  H  H249  1  0.65830000  0.43060000  0.02720000  1
  H  H250  1  0.83590000  0.51560000  0.10840000  1
  H  H251  1  0.79920000  0.49140000  0.15800000  1
  H  H252  1  0.87450000  0.48370000  0.05460000  1
  H  H253  1  0.96940000  0.49990000  0.05320000  1
  H  H254  1  0.17860000  0.62690000  0.57640000  1
  H  H255  1  0.09660000  0.65830000  0.52720000  1
  H  H256  1  0.09280000  0.83590000  0.60840000  1
  H  H257  1  0.16660000  0.79920000  0.65800000  1
  H  H258  1  0.07090000  0.87450000  0.55460000  1
  H  H259  1  0.05330000  0.96940000  0.55320000  1
  H  H260  1  0.44950000  0.17860000  0.07640000  1
  H  H261  1  0.36890000  0.09660000  0.02720000  1
  H  H262  1  0.27250000  0.09280000  0.10840000  1
  H  H263  1  0.35880000  0.16660000  0.15800000  1
  H  H264  1  0.18010000  0.07090000  0.05460000  1
  H  H265  1  0.08380000  0.05330000  0.05320000  1
  H  H266  1  0.39780000  0.44950000  0.57640000  1
  H  H267  1  0.43060000  0.36890000  0.52720000  1
  H  H268  1  0.51560000  0.27250000  0.60840000  1
  H  H269  1  0.49140000  0.35880000  0.65800000  1
  H  H270  1  0.48370000  0.18010000  0.55460000  1
  H  H271  1  0.49990000  0.08380000  0.55320000  1
  N  N272  1  0.27406000  0.50000000  1.00000000  1
  N  N273  1  0.00000000  0.27406000  0.50000000  1
  N  N274  1  0.72594000  1.00000000  0.00000000  1
  N  N275  1  0.50000000  0.72594000  0.50000000  1
  N  N276  1  0.72594000  0.50000000  0.00000000  1
  N  N277  1  0.00000000  0.72594000  0.50000000  1
  N  N278  1  0.27406000  0.00000000  0.00000000  1
  N  N279  1  0.50000000  0.27406000  0.50000000  1
  O  O280  1  0.50664000  0.38508000  0.14268000  1
  O  O281  1  0.46916000  0.45676000  0.18976000  1
  O  O282  1  0.53578000  0.35926000  0.21852000  1
  O  O283  1  0.60471000  0.45302000  0.20942000  1
  O  O284  1  0.25760000  0.50664000  0.64268000  1
  O  O285  1  0.23300000  0.46916000  0.68976000  1
  O  O286  1  0.35926000  0.53578000  0.71852000  1
  O  O287  1  0.25640000  0.60471000  0.70942000  1
  O  O288  1  0.63604000  0.25760000  0.14268000  1
  O  O289  1  0.72060000  0.23300000  0.18976000  1
  O  O290  1  0.68274000  0.35926000  0.21852000  1
  O  O291  1  0.60471000  0.25640000  0.20942000  1
  O  O292  1  0.38508000  0.63604000  0.64268000  1
  O  O293  1  0.45676000  0.72060000  0.68976000  1
  O  O294  1  0.35926000  0.68274000  0.71852000  1
  O  O295  1  0.45302000  0.60471000  0.70942000  1
  O  O296  1  0.36396000  0.61492000  0.85732000  1
  O  O297  1  0.27940000  0.54324000  0.81024000  1
  O  O298  1  0.31726000  0.64074000  0.78148000  1
  O  O299  1  0.39529000  0.54698000  0.79058000  1
  O  O300  1  0.74240000  0.36396000  0.35732000  1
  O  O301  1  0.76700000  0.27940000  0.31024000  1
  O  O302  1  0.64074000  0.31726000  0.28148000  1
  O  O303  1  0.74360000  0.39529000  0.29058000  1
  O  O304  1  0.49336000  0.74240000  0.85732000  1
  O  O305  1  0.53084000  0.76700000  0.81024000  1
  O  O306  1  0.46422000  0.64074000  0.78148000  1
  O  O307  1  0.39529000  0.74360000  0.79058000  1
  O  O308  1  0.61492000  0.49336000  0.35732000  1
  O  O309  1  0.54324000  0.53084000  0.31024000  1
  O  O310  1  0.64074000  0.46422000  0.28148000  1
  O  O311  1  0.54698000  0.39529000  0.29058000  1
  O  O312  1  0.49336000  0.61492000  0.85732000  1
  O  O313  1  0.53084000  0.54324000  0.81024000  1
  O  O314  1  0.74240000  0.49336000  0.35732000  1
  O  O315  1  0.76700000  0.53084000  0.31024000  1
  O  O316  1  0.36396000  0.74240000  0.85732000  1
  O  O317  1  0.27940000  0.76700000  0.81024000  1
  O  O318  1  0.61492000  0.36396000  0.35732000  1
  O  O319  1  0.54324000  0.27940000  0.31024000  1
  O  O320  1  0.63604000  0.38508000  0.14268000  1
  O  O321  1  0.72060000  0.45676000  0.18976000  1
  O  O322  1  0.25760000  0.63604000  0.64268000  1
  O  O323  1  0.23300000  0.72060000  0.68976000  1
  O  O324  1  0.50664000  0.25760000  0.14268000  1
  O  O325  1  0.46916000  0.23300000  0.18976000  1
  O  O326  1  0.38508000  0.50664000  0.64268000  1
  O  O327  1  0.45676000  0.46916000  0.68976000  1
  Zr  Zr328  1  0.58834000  0.33834000  0.17668000  1
  Zr  Zr329  1  0.53979000  0.46021000  0.25000000  1
  Zr  Zr330  1  0.33834000  0.58834000  0.67668000  1
  Zr  Zr331  1  0.28979000  0.53979000  0.75000000  1
  Zr  Zr332  1  0.71021000  0.28979000  0.25000000  1
  Zr  Zr333  1  0.46021000  0.71021000  0.75000000  1
  Zr  Zr334  1  0.41166000  0.66166000  0.82332000  1
  Zr  Zr335  1  0.66166000  0.41166000  0.32332000  1
  Zr  Zr336  1  0.46021000  0.53979000  0.75000000  1
  Zr  Zr337  1  0.71021000  0.46021000  0.25000000  1
  Zr  Zr338  1  0.28979000  0.71021000  0.75000000  1
  Zr  Zr339  1  0.53979000  0.28979000  0.25000000  1
