# generated using pymatgen
data_Zr3H26(C23O6)2
_symmetry_space_group_name_H-M   'P 1'
_cell_length_a   20.70700000
_cell_length_b   20.70700000
_cell_length_c   36.55197741
_cell_angle_alpha   106.45452011
_cell_angle_beta   106.45452011
_cell_angle_gamma   90.00000000
_symmetry_Int_Tables_number   1
_chemical_formula_structural   Zr3H26(C23O6)2
_chemical_formula_sum   'Zr12 H104 C184 O48'
_cell_volume   14360.33023984
_cell_formula_units_Z   4
loop_
 _symmetry_equiv_pos_site_id
 _symmetry_equiv_pos_as_xyz
  1  'x, y, z'
loop_
 _atom_site_type_symbol
 _atom_site_label
 _atom_site_symmetry_multiplicity
 _atom_site_fract_x
 _atom_site_fract_y
 _atom_site_fract_z
 _atom_site_occupancy
  C  C0  1  0.81243000  0.07293000  0.84566000  1
  C  C1  1  0.78918000  0.06058000  0.87756000  1
  C  C2  1  0.72904000  0.02144000  0.86868000  1
  C  C3  1  0.82599000  0.08949000  0.91698000  1
  C  C4  1  0.70751000  0.00881000  0.89822000  1
  C  C5  1  0.80357000  0.07087000  0.94614000  1
  C  C6  1  0.74520000  0.03180000  0.93720000  1
  C  C7  1  0.72325000  0.01395000  0.96910000  1
  C  C8  1  0.65758000  0.01148000  0.96776000  1
  C  C9  1  0.51984000  0.97094000  0.96048000  1
  C  C10  1  0.77040000  1.00000000  0.00000000  1
  C  C11  1  0.63990000  1.00000000  0.00000000  1
  C  C12  1  0.56760000  0.00000000  0.00000000  1
  C  C13  1  0.27273000  0.81243000  0.34566000  1
  C  C14  1  0.31698000  0.78918000  0.37756000  1
  C  C15  1  0.34724000  0.72904000  0.36868000  1
  C  C16  1  0.32749000  0.82599000  0.41698000  1
  C  C17  1  0.38941000  0.70751000  0.39822000  1
  C  C18  1  0.37527000  0.80357000  0.44614000  1
  C  C19  1  0.40540000  0.74520000  0.43720000  1
  C  C20  1  0.45515000  0.72325000  0.46910000  1
  C  C21  1  0.45628000  0.65758000  0.46776000  1
  C  C22  1  0.48954000  0.51984000  0.46048000  1
  C  C23  1  0.50000000  0.77040000  0.50000000  1
  C  C24  1  0.50000000  0.63990000  0.50000000  1
  C  C25  1  0.50000000  0.56760000  0.50000000  1
  C  C26  1  0.03323000  0.27273000  0.84566000  1
  C  C27  1  0.08838000  0.31698000  0.87756000  1
  C  C28  1  0.13964000  0.34724000  0.86868000  1
  C  C29  1  0.09099000  0.32749000  0.91698000  1
  C  C30  1  0.19071000  0.38941000  0.89822000  1
  C  C31  1  0.14257000  0.37527000  0.94614000  1
  C  C32  1  0.19200000  0.40540000  0.93720000  1
  C  C33  1  0.24585000  0.45515000  0.96910000  1
  C  C34  1  0.31018000  0.45628000  0.96776000  1
  C  C35  1  0.44064000  0.48954000  0.96048000  1
  C  C36  1  0.22960000  0.50000000  0.00000000  1
  C  C37  1  0.36010000  0.50000000  0.00000000  1
  C  C38  1  0.43240000  0.50000000  1.00000000  1
  C  C39  1  0.07293000  0.03323000  0.34566000  1
  C  C40  1  0.06058000  0.08838000  0.37756000  1
  C  C41  1  0.02144000  0.13964000  0.36868000  1
  C  C42  1  0.08949000  0.09099000  0.41698000  1
  C  C43  1  0.00881000  0.19071000  0.39822000  1
  C  C44  1  0.07087000  0.14257000  0.44614000  1
  C  C45  1  0.03180000  0.19200000  0.43720000  1
  C  C46  1  0.01395000  0.24585000  0.46910000  1
  C  C47  1  0.01148000  0.31018000  0.46776000  1
  C  C48  1  0.97094000  0.44064000  0.46048000  1
  C  C49  1  0.00000000  0.22960000  0.50000000  1
  C  C50  1  0.00000000  0.36010000  0.50000000  1
  C  C51  1  0.00000000  0.43240000  0.50000000  1
  C  C52  1  0.96677000  0.92707000  0.15434000  1
  C  C53  1  0.91162000  0.93942000  0.12244000  1
  C  C54  1  0.86036000  0.97856000  0.13132000  1
  C  C55  1  0.90901000  0.91051000  0.08302000  1
  C  C56  1  0.80929000  0.99119000  0.10178000  1
  C  C57  1  0.85743000  0.92913000  0.05386000  1
  C  C58  1  0.80800000  0.96820000  0.06280000  1
  C  C59  1  0.75415000  0.98605000  0.03090000  1
  C  C60  1  0.68982000  0.98852000  0.03224000  1
  C  C61  1  0.55936000  0.02906000  0.03952000  1
  C  C62  1  0.72727000  0.96677000  0.65434000  1
  C  C63  1  0.68302000  0.91162000  0.62244000  1
  C  C64  1  0.65276000  0.86036000  0.63132000  1
  C  C65  1  0.67251000  0.90901000  0.58302000  1
  C  C66  1  0.61059000  0.80929000  0.60178000  1
  C  C67  1  0.62473000  0.85743000  0.55386000  1
  C  C68  1  0.59460000  0.80800000  0.56280000  1
  C  C69  1  0.54485000  0.75415000  0.53090000  1
  C  C70  1  0.54372000  0.68982000  0.53224000  1
  C  C71  1  0.51046000  0.55936000  0.53952000  1
  C  C72  1  0.18757000  0.72727000  0.15434000  1
  C  C73  1  0.21082000  0.68302000  0.12244000  1
  C  C74  1  0.27096000  0.65276000  0.13132000  1
  C  C75  1  0.17401000  0.67251000  0.08302000  1
  C  C76  1  0.29249000  0.61059000  0.10178000  1
  C  C77  1  0.19643000  0.62473000  0.05386000  1
  C  C78  1  0.25480000  0.59460000  0.06280000  1
  C  C79  1  0.27675000  0.54485000  0.03090000  1
  C  C80  1  0.34242000  0.54372000  0.03224000  1
  C  C81  1  0.48016000  0.51046000  0.03952000  1
  C  C82  1  0.92707000  0.18757000  0.65434000  1
  C  C83  1  0.93942000  0.21082000  0.62244000  1
  C  C84  1  0.97856000  0.27096000  0.63132000  1
  C  C85  1  0.91051000  0.17401000  0.58302000  1
  C  C86  1  0.99119000  0.29249000  0.60178000  1
  C  C87  1  0.92913000  0.19643000  0.55386000  1
  C  C88  1  0.96820000  0.25480000  0.56280000  1
  C  C89  1  0.98605000  0.27675000  0.53090000  1
  C  C90  1  0.98852000  0.34242000  0.53224000  1
  C  C91  1  0.02906000  0.48016000  0.53952000  1
  C  C92  1  0.18757000  0.92707000  0.15434000  1
  C  C93  1  0.21082000  0.93942000  0.12244000  1
  C  C94  1  0.27096000  0.97856000  0.13132000  1
  C  C95  1  0.17401000  0.91051000  0.08302000  1
  C  C96  1  0.29249000  0.99119000  0.10178000  1
  C  C97  1  0.19643000  0.92913000  0.05386000  1
  C  C98  1  0.25480000  0.96820000  0.06280000  1
  C  C99  1  0.27675000  0.98605000  0.03090000  1
  C  C100  1  0.34242000  0.98852000  0.03224000  1
  C  C101  1  0.48016000  0.02906000  0.03952000  1
  C  C102  1  0.22960000  0.00000000  0.00000000  1
  C  C103  1  0.36010000  0.00000000  0.00000000  1
  C  C104  1  0.43240000  1.00000000  1.00000000  1
  C  C105  1  0.72727000  0.18757000  0.65434000  1
  C  C106  1  0.68302000  0.21082000  0.62244000  1
  C  C107  1  0.65276000  0.27096000  0.63132000  1
  C  C108  1  0.67251000  0.17401000  0.58302000  1
  C  C109  1  0.61059000  0.29249000  0.60178000  1
  C  C110  1  0.62473000  0.19643000  0.55386000  1
  C  C111  1  0.59460000  0.25480000  0.56280000  1
  C  C112  1  0.54485000  0.27675000  0.53090000  1
  C  C113  1  0.54372000  0.34242000  0.53224000  1
  C  C114  1  0.51046000  0.48016000  0.53952000  1
  C  C115  1  0.50000000  0.22960000  0.50000000  1
  C  C116  1  0.50000000  0.36010000  0.50000000  1
  C  C117  1  0.50000000  0.43240000  0.50000000  1
  C  C118  1  0.96677000  0.72727000  0.15434000  1
  C  C119  1  0.91162000  0.68302000  0.12244000  1
  C  C120  1  0.86036000  0.65276000  0.13132000  1
  C  C121  1  0.90901000  0.67251000  0.08302000  1
  C  C122  1  0.80929000  0.61059000  0.10178000  1
  C  C123  1  0.85743000  0.62473000  0.05386000  1
  C  C124  1  0.80800000  0.59460000  0.06280000  1
  C  C125  1  0.75415000  0.54485000  0.03090000  1
  C  C126  1  0.68982000  0.54372000  0.03224000  1
  C  C127  1  0.55936000  0.51046000  0.03952000  1
  C  C128  1  0.77040000  0.50000000  0.00000000  1
  C  C129  1  0.63990000  0.50000000  0.00000000  1
  C  C130  1  0.56760000  0.50000000  0.00000000  1
  C  C131  1  0.92707000  0.96677000  0.65434000  1
  C  C132  1  0.93942000  0.91162000  0.62244000  1
  C  C133  1  0.97856000  0.86036000  0.63132000  1
  C  C134  1  0.91051000  0.90901000  0.58302000  1
  C  C135  1  0.99119000  0.80929000  0.60178000  1
  C  C136  1  0.92913000  0.85743000  0.55386000  1
  C  C137  1  0.96820000  0.80800000  0.56280000  1
  C  C138  1  0.98605000  0.75415000  0.53090000  1
  C  C139  1  0.98852000  0.68982000  0.53224000  1
  C  C140  1  0.02906000  0.55936000  0.53952000  1
  C  C141  1  0.00000000  0.77040000  0.50000000  1
  C  C142  1  0.00000000  0.63990000  0.50000000  1
  C  C143  1  0.00000000  0.56760000  0.50000000  1
  C  C144  1  0.03323000  0.07293000  0.84566000  1
  C  C145  1  0.08838000  0.06058000  0.87756000  1
  C  C146  1  0.13964000  0.02144000  0.86868000  1
  C  C147  1  0.09099000  0.08949000  0.91698000  1
  C  C148  1  0.19071000  0.00881000  0.89822000  1
  C  C149  1  0.14257000  0.07087000  0.94614000  1
  C  C150  1  0.19200000  0.03180000  0.93720000  1
  C  C151  1  0.24585000  0.01395000  0.96910000  1
  C  C152  1  0.31018000  0.01148000  0.96776000  1
  C  C153  1  0.44064000  0.97094000  0.96048000  1
  C  C154  1  0.27273000  0.03323000  0.34566000  1
  C  C155  1  0.31698000  0.08838000  0.37756000  1
  C  C156  1  0.34724000  0.13964000  0.36868000  1
  C  C157  1  0.32749000  0.09099000  0.41698000  1
  C  C158  1  0.38941000  0.19071000  0.39822000  1
  C  C159  1  0.37527000  0.14257000  0.44614000  1
  C  C160  1  0.40540000  0.19200000  0.43720000  1
  C  C161  1  0.45515000  0.24585000  0.46910000  1
  C  C162  1  0.45628000  0.31018000  0.46776000  1
  C  C163  1  0.48954000  0.44064000  0.46048000  1
  C  C164  1  0.81243000  0.27273000  0.84566000  1
  C  C165  1  0.78918000  0.31698000  0.87756000  1
  C  C166  1  0.72904000  0.34724000  0.86868000  1
  C  C167  1  0.82599000  0.32749000  0.91698000  1
  C  C168  1  0.70751000  0.38941000  0.89822000  1
  C  C169  1  0.80357000  0.37527000  0.94614000  1
  C  C170  1  0.74520000  0.40540000  0.93720000  1
  C  C171  1  0.72325000  0.45515000  0.96910000  1
  C  C172  1  0.65758000  0.45628000  0.96776000  1
  C  C173  1  0.51984000  0.48954000  0.96048000  1
  C  C174  1  0.07293000  0.81243000  0.34566000  1
  C  C175  1  0.06058000  0.78918000  0.37756000  1
  C  C176  1  0.02144000  0.72904000  0.36868000  1
  C  C177  1  0.08949000  0.82599000  0.41698000  1
  C  C178  1  0.00881000  0.70751000  0.39822000  1
  C  C179  1  0.07087000  0.80357000  0.44614000  1
  C  C180  1  0.03180000  0.74520000  0.43720000  1
  C  C181  1  0.01395000  0.72325000  0.46910000  1
  C  C182  1  0.01148000  0.65758000  0.46776000  1
  C  C183  1  0.97094000  0.51984000  0.46048000  1
  H  H184  1  0.70250000  0.00310000  0.84160000  1
  H  H185  1  0.86450000  0.12050000  0.92420000  1
  H  H186  1  0.66530000  0.98360000  0.89140000  1
  H  H187  1  0.83060000  0.08650000  0.97320000  1
  H  H188  1  0.62380000  0.01740000  0.94540000  1
  H  H189  1  0.53330000  0.95370000  0.93700000  1
  H  H190  1  0.81630000  1.00000000  1.00000000  1
  H  H191  1  0.33850000  0.70250000  0.34160000  1
  H  H192  1  0.30370000  0.86450000  0.42420000  1
  H  H193  1  0.40780000  0.66530000  0.39140000  1
  H  H194  1  0.38670000  0.83060000  0.47320000  1
  H  H195  1  0.42800000  0.62380000  0.44540000  1
  H  H196  1  0.48330000  0.53330000  0.43700000  1
  H  H197  1  0.50000000  0.81630000  0.50000000  1
  H  H198  1  0.13910000  0.33850000  0.84160000  1
  H  H199  1  0.05970000  0.30370000  0.92420000  1
  H  H200  1  0.22610000  0.40780000  0.89140000  1
  H  H201  1  0.14260000  0.38670000  0.97320000  1
  H  H202  1  0.32160000  0.42800000  0.94540000  1
  H  H203  1  0.40370000  0.48330000  0.93700000  1
  H  H204  1  0.18370000  0.50000000  1.00000000  1
  H  H205  1  0.00310000  0.13910000  0.34160000  1
  H  H206  1  0.12050000  0.05970000  0.42420000  1
  H  H207  1  0.98360000  0.22610000  0.39140000  1
  H  H208  1  0.08650000  0.14260000  0.47320000  1
  H  H209  1  0.01740000  0.32160000  0.44540000  1
  H  H210  1  0.95370000  0.40370000  0.43700000  1
  H  H211  1  0.00000000  0.18370000  0.50000000  1
  H  H212  1  0.86090000  0.99690000  0.15840000  1
  H  H213  1  0.94030000  0.87950000  0.07580000  1
  H  H214  1  0.77390000  0.01640000  0.10860000  1
  H  H215  1  0.85740000  0.91350000  0.02680000  1
  H  H216  1  0.67840000  0.98260000  0.05460000  1
  H  H217  1  0.59630000  0.04630000  0.06300000  1
  H  H218  1  0.66150000  0.86090000  0.65840000  1
  H  H219  1  0.69630000  0.94030000  0.57580000  1
  H  H220  1  0.59220000  0.77390000  0.60860000  1
  H  H221  1  0.61330000  0.85740000  0.52680000  1
  H  H222  1  0.57200000  0.67840000  0.55460000  1
  H  H223  1  0.51670000  0.59630000  0.56300000  1
  H  H224  1  0.29750000  0.66150000  0.15840000  1
  H  H225  1  0.13550000  0.69630000  0.07580000  1
  H  H226  1  0.33470000  0.59220000  0.10860000  1
  H  H227  1  0.16940000  0.61330000  0.02680000  1
  H  H228  1  0.37620000  0.57200000  0.05460000  1
  H  H229  1  0.46670000  0.51670000  0.06300000  1
  H  H230  1  0.99690000  0.29750000  0.65840000  1
  H  H231  1  0.87950000  0.13550000  0.57580000  1
  H  H232  1  0.01640000  0.33470000  0.60860000  1
  H  H233  1  0.91350000  0.16940000  0.52680000  1
  H  H234  1  0.98260000  0.37620000  0.55460000  1
  H  H235  1  0.04630000  0.46670000  0.56300000  1
  H  H236  1  0.29750000  0.99690000  0.15840000  1
  H  H237  1  0.13550000  0.87950000  0.07580000  1
  H  H238  1  0.33470000  0.01640000  0.10860000  1
  H  H239  1  0.16940000  0.91350000  0.02680000  1
  H  H240  1  0.37620000  0.98260000  0.05460000  1
  H  H241  1  0.46670000  0.04630000  0.06300000  1
  H  H242  1  0.18370000  0.00000000  0.00000000  1
  H  H243  1  0.66150000  0.29750000  0.65840000  1
  H  H244  1  0.69630000  0.13550000  0.57580000  1
  H  H245  1  0.59220000  0.33470000  0.60860000  1
  H  H246  1  0.61330000  0.16940000  0.52680000  1
  H  H247  1  0.57200000  0.37620000  0.55460000  1
  H  H248  1  0.51670000  0.46670000  0.56300000  1
  H  H249  1  0.50000000  0.18370000  0.50000000  1
  H  H250  1  0.86090000  0.66150000  0.15840000  1
  H  H251  1  0.94030000  0.69630000  0.07580000  1
  H  H252  1  0.77390000  0.59220000  0.10860000  1
  H  H253  1  0.85740000  0.61330000  0.02680000  1
  H  H254  1  0.67840000  0.57200000  0.05460000  1
  H  H255  1  0.59630000  0.51670000  0.06300000  1
  H  H256  1  0.81630000  0.50000000  1.00000000  1
  H  H257  1  0.99690000  0.86090000  0.65840000  1
  H  H258  1  0.87950000  0.94030000  0.57580000  1
  H  H259  1  0.01640000  0.77390000  0.60860000  1
  H  H260  1  0.91350000  0.85740000  0.52680000  1
  H  H261  1  0.98260000  0.67840000  0.55460000  1
  H  H262  1  0.04630000  0.59630000  0.56300000  1
  H  H263  1  0.00000000  0.81630000  0.50000000  1
  H  H264  1  0.13910000  0.00310000  0.84160000  1
  H  H265  1  0.05970000  0.12050000  0.92420000  1
  H  H266  1  0.22610000  0.98360000  0.89140000  1
  H  H267  1  0.14260000  0.08650000  0.97320000  1
  H  H268  1  0.32160000  0.01740000  0.94540000  1
  H  H269  1  0.40370000  0.95370000  0.93700000  1
  H  H270  1  0.33850000  0.13910000  0.34160000  1
  H  H271  1  0.30370000  0.05970000  0.42420000  1
  H  H272  1  0.40780000  0.22610000  0.39140000  1
  H  H273  1  0.38670000  0.14260000  0.47320000  1
  H  H274  1  0.42800000  0.32160000  0.44540000  1
  H  H275  1  0.48330000  0.40370000  0.43700000  1
  H  H276  1  0.70250000  0.33850000  0.84160000  1
  H  H277  1  0.86450000  0.30370000  0.92420000  1
  H  H278  1  0.66530000  0.40780000  0.89140000  1
  H  H279  1  0.83060000  0.38670000  0.97320000  1
  H  H280  1  0.62380000  0.42800000  0.94540000  1
  H  H281  1  0.53330000  0.48330000  0.93700000  1
  H  H282  1  0.00310000  0.70250000  0.34160000  1
  H  H283  1  0.12050000  0.86450000  0.42420000  1
  H  H284  1  0.98360000  0.66530000  0.39140000  1
  H  H285  1  0.08650000  0.83060000  0.47320000  1
  H  H286  1  0.01740000  0.62380000  0.44540000  1
  H  H287  1  0.95370000  0.53330000  0.43700000  1
  O  O288  1  0.86319000  0.11419000  0.85698000  1
  O  O289  1  0.77622000  0.04882000  0.81064000  1
  O  O290  1  0.81788000  0.14068000  0.78136000  1
  O  O291  1  0.89485000  0.04855000  0.78970000  1
  O  O292  1  0.24279000  0.86319000  0.35698000  1
  O  O293  1  0.26182000  0.77622000  0.31064000  1
  O  O294  1  0.14068000  0.81788000  0.28136000  1
  O  O295  1  0.24115000  0.89485000  0.28970000  1
  O  O296  1  0.99379000  0.24279000  0.85698000  1
  O  O297  1  0.03442000  0.26182000  0.81064000  1
  O  O298  1  0.96348000  0.14068000  0.78136000  1
  O  O299  1  0.89485000  0.24115000  0.78970000  1
  O  O300  1  0.11419000  0.99379000  0.35698000  1
  O  O301  1  0.04882000  0.03442000  0.31064000  1
  O  O302  1  0.14068000  0.96348000  0.28136000  1
  O  O303  1  0.04855000  0.89485000  0.28970000  1
  O  O304  1  0.00621000  0.88581000  0.14302000  1
  O  O305  1  0.96558000  0.95118000  0.18936000  1
  O  O306  1  0.03652000  0.85932000  0.21864000  1
  O  O307  1  0.10515000  0.95145000  0.21030000  1
  O  O308  1  0.75721000  0.00621000  0.64302000  1
  O  O309  1  0.73818000  0.96558000  0.68936000  1
  O  O310  1  0.85932000  0.03652000  0.71864000  1
  O  O311  1  0.75885000  0.10515000  0.71030000  1
  O  O312  1  0.13681000  0.75721000  0.14302000  1
  O  O313  1  0.22378000  0.73818000  0.18936000  1
  O  O314  1  0.18212000  0.85932000  0.21864000  1
  O  O315  1  0.10515000  0.75885000  0.21030000  1
  O  O316  1  0.88581000  0.13681000  0.64302000  1
  O  O317  1  0.95118000  0.22378000  0.68936000  1
  O  O318  1  0.85932000  0.18212000  0.71864000  1
  O  O319  1  0.95145000  0.10515000  0.71030000  1
  O  O320  1  0.13681000  0.88581000  0.14302000  1
  O  O321  1  0.22378000  0.95118000  0.18936000  1
  O  O322  1  0.75721000  0.13681000  0.64302000  1
  O  O323  1  0.73818000  0.22378000  0.68936000  1
  O  O324  1  0.00621000  0.75721000  0.14302000  1
  O  O325  1  0.96558000  0.73818000  0.18936000  1
  O  O326  1  0.88581000  0.00621000  0.64302000  1
  O  O327  1  0.95118000  0.96558000  0.68936000  1
  O  O328  1  0.99379000  0.11419000  0.85698000  1
  O  O329  1  0.03442000  0.04882000  0.81064000  1
  O  O330  1  0.24279000  0.99379000  0.35698000  1
  O  O331  1  0.26182000  0.03442000  0.31064000  1
  O  O332  1  0.86319000  0.24279000  0.85698000  1
  O  O333  1  0.77622000  0.26182000  0.81064000  1
  O  O334  1  0.11419000  0.86319000  0.35698000  1
  O  O335  1  0.04882000  0.77622000  0.31064000  1
  Zr  Zr336  1  0.91142000  0.16142000  0.82284000  1
  Zr  Zr337  1  0.79050000  0.04050000  0.75000000  1
  Zr  Zr338  1  0.16142000  0.91142000  0.32284000  1
  Zr  Zr339  1  0.20950000  0.79050000  0.25000000  1
  Zr  Zr340  1  0.95950000  0.20950000  0.75000000  1
  Zr  Zr341  1  0.04050000  0.95950000  0.25000000  1
  Zr  Zr342  1  0.08858000  0.83858000  0.17716000  1
  Zr  Zr343  1  0.83858000  0.08858000  0.67716000  1
  Zr  Zr344  1  0.20950000  0.95950000  0.25000000  1
  Zr  Zr345  1  0.79050000  0.20950000  0.75000000  1
  Zr  Zr346  1  0.04050000  0.79050000  0.25000000  1
  Zr  Zr347  1  0.95950000  0.04050000  0.75000000  1
