# generated using pymatgen
data_Zr3H10C21NO8
_symmetry_space_group_name_H-M   'P 1'
_cell_length_a   14.63000000
_cell_length_b   24.45000000
_cell_length_c   24.45000000
_cell_angle_alpha   90.00000000
_cell_angle_beta   90.00000000
_cell_angle_gamma   90.00000000
_symmetry_Int_Tables_number   1
_chemical_formula_structural   Zr3H10C21NO8
_chemical_formula_sum   'Zr24 H80 C168 N8 O64'
_cell_volume   8745.85057500
_cell_formula_units_Z   8
loop_
 _symmetry_equiv_pos_site_id
 _symmetry_equiv_pos_as_xyz
  1  'x, y, z'
loop_
 _atom_site_type_symbol
 _atom_site_label
 _atom_site_symmetry_multiplicity
 _atom_site_fract_x
 _atom_site_fract_y
 _atom_site_fract_z
 _atom_site_occupancy
  Zr  Zr0  1  0.28736000  0.68711000  0.66919000  1
  Zr  Zr1  1  0.13850000  0.68663000  0.66922000  1
  Zr  Zr2  1  0.11821000  0.75000000  0.75000000  1
  Zr  Zr3  1  0.45691000  0.75000000  0.75000000  1
  Zr  Zr4  1  0.30720000  0.75000000  0.75000000  1
  Zr  Zr5  1  0.97090000  0.75000000  0.75000000  1
  Zr  Zr6  1  0.28736000  0.83081000  0.68711000  1
  Zr  Zr7  1  0.13850000  0.83078000  0.68663000  1
  Zr  Zr8  1  0.28736000  0.81289000  0.83081000  1
  Zr  Zr9  1  0.13850000  0.81337000  0.83078000  1
  Zr  Zr10  1  0.28736000  0.66919000  0.81289000  1
  Zr  Zr11  1  0.13850000  0.66922000  0.81337000  1
  Zr  Zr12  1  0.71264000  0.31289000  0.33081000  1
  Zr  Zr13  1  0.86150000  0.31337000  0.33078000  1
  Zr  Zr14  1  0.88179000  0.25000000  0.25000000  1
  Zr  Zr15  1  0.54309000  0.25000000  0.25000000  1
  Zr  Zr16  1  0.69280000  0.25000000  0.25000000  1
  Zr  Zr17  1  0.02910000  0.25000000  0.25000000  1
  Zr  Zr18  1  0.71264000  0.16919000  0.31289000  1
  Zr  Zr19  1  0.86150000  0.16922000  0.31337000  1
  Zr  Zr20  1  0.71264000  0.18711000  0.16919000  1
  Zr  Zr21  1  0.86150000  0.18663000  0.16922000  1
  Zr  Zr22  1  0.71264000  0.33081000  0.18711000  1
  Zr  Zr23  1  0.86150000  0.33078000  0.18663000  1
  H  H24  1  0.08180000  0.60730000  0.56460000  1
  H  H25  1  0.96620000  0.56450000  0.50880000  1
  H  H26  1  0.88620000  0.67930000  0.65440000  1
  H  H27  1  0.49860000  0.60600000  0.56630000  1
  H  H28  1  0.60340000  0.57090000  0.50300000  1
  H  H29  1  0.68340000  0.67920000  0.65380000  1
  H  H30  1  0.85610000  0.59080000  0.42830000  1
  H  H31  1  0.84640000  0.53630000  0.35090000  1
  H  H32  1  0.70090000  0.42540000  0.43540000  1
  H  H33  1  0.71060000  0.47990000  0.51280000  1
  H  H34  1  0.08180000  0.93540000  0.60730000  1
  H  H35  1  0.96620000  0.99120000  0.56450000  1
  H  H36  1  0.88620000  0.84560000  0.67930000  1
  H  H37  1  0.49860000  0.93370000  0.60600000  1
  H  H38  1  0.60340000  0.99700000  0.57090000  1
  H  H39  1  0.68340000  0.84620000  0.67920000  1
  H  H40  1  0.85610000  0.07170000  0.59080000  1
  H  H41  1  0.84640000  0.14910000  0.53630000  1
  H  H42  1  0.70090000  0.06460000  0.42540000  1
  H  H43  1  0.71060000  0.98720000  0.47990000  1
  H  H44  1  0.08180000  0.89270000  0.93540000  1
  H  H45  1  0.96620000  0.93550000  0.99120000  1
  H  H46  1  0.88620000  0.82070000  0.84560000  1
  H  H47  1  0.49860000  0.89400000  0.93370000  1
  H  H48  1  0.60340000  0.92910000  0.99700000  1
  H  H49  1  0.68340000  0.82080000  0.84620000  1
  H  H50  1  0.85610000  0.90920000  0.07170000  1
  H  H51  1  0.84640000  0.96370000  0.14910000  1
  H  H52  1  0.70090000  0.07460000  0.06460000  1
  H  H53  1  0.71060000  0.02010000  0.98720000  1
  H  H54  1  0.08180000  0.56460000  0.89270000  1
  H  H55  1  0.96620000  0.50880000  0.93550000  1
  H  H56  1  0.88620000  0.65440000  0.82070000  1
  H  H57  1  0.49860000  0.56630000  0.89400000  1
  H  H58  1  0.60340000  0.50300000  0.92910000  1
  H  H59  1  0.68340000  0.65380000  0.82080000  1
  H  H60  1  0.85610000  0.42830000  0.90920000  1
  H  H61  1  0.84640000  0.35090000  0.96370000  1
  H  H62  1  0.70090000  0.43540000  0.07460000  1
  H  H63  1  0.71060000  0.51280000  0.02010000  1
  H  H64  1  0.91820000  0.39270000  0.43540000  1
  H  H65  1  0.03380000  0.43550000  0.49120000  1
  H  H66  1  0.11380000  0.32070000  0.34560000  1
  H  H67  1  0.50140000  0.39400000  0.43370000  1
  H  H68  1  0.39660000  0.42910000  0.49700000  1
  H  H69  1  0.31660000  0.32080000  0.34620000  1
  H  H70  1  0.14390000  0.40920000  0.57170000  1
  H  H71  1  0.15360000  0.46370000  0.64910000  1
  H  H72  1  0.29910000  0.57460000  0.56460000  1
  H  H73  1  0.28940000  0.52010000  0.48720000  1
  H  H74  1  0.91820000  0.06460000  0.39270000  1
  H  H75  1  0.03380000  0.00880000  0.43550000  1
  H  H76  1  0.11380000  0.15440000  0.32070000  1
  H  H77  1  0.50140000  0.06630000  0.39400000  1
  H  H78  1  0.39660000  0.00300000  0.42910000  1
  H  H79  1  0.31660000  0.15380000  0.32080000  1
  H  H80  1  0.14390000  0.92830000  0.40920000  1
  H  H81  1  0.15360000  0.85090000  0.46370000  1
  H  H82  1  0.29910000  0.93540000  0.57460000  1
  H  H83  1  0.28940000  0.01280000  0.52010000  1
  H  H84  1  0.91820000  0.10730000  0.06460000  1
  H  H85  1  0.03380000  0.06450000  0.00880000  1
  H  H86  1  0.11380000  0.17930000  0.15440000  1
  H  H87  1  0.50140000  0.10600000  0.06630000  1
  H  H88  1  0.39660000  0.07090000  0.00300000  1
  H  H89  1  0.31660000  0.17920000  0.15380000  1
  H  H90  1  0.14390000  0.09080000  0.92830000  1
  H  H91  1  0.15360000  0.03630000  0.85090000  1
  H  H92  1  0.29910000  0.92540000  0.93540000  1
  H  H93  1  0.28940000  0.97990000  0.01280000  1
  H  H94  1  0.91820000  0.43540000  0.10730000  1
  H  H95  1  0.03380000  0.49120000  0.06450000  1
  H  H96  1  0.11380000  0.34560000  0.17930000  1
  H  H97  1  0.50140000  0.43370000  0.10600000  1
  H  H98  1  0.39660000  0.49700000  0.07090000  1
  H  H99  1  0.31660000  0.34620000  0.17920000  1
  H  H100  1  0.14390000  0.57170000  0.09080000  1
  H  H101  1  0.15360000  0.64910000  0.03630000  1
  H  H102  1  0.29910000  0.56460000  0.92540000  1
  H  H103  1  0.28940000  0.48720000  0.97990000  1
  C  C104  1  0.06750000  0.67360000  0.64940000  1
  C  C105  1  0.99150000  0.65060000  0.62250000  1
  C  C106  1  0.02030000  0.61290000  0.57220000  1
  C  C107  1  0.95060000  0.58710000  0.53800000  1
  C  C108  1  0.86330000  0.59750000  0.55090000  1
  C  C109  1  0.83780000  0.63120000  0.59360000  1
  C  C110  1  0.90670000  0.65620000  0.62670000  1
  C  C111  1  0.50540000  0.67290000  0.64750000  1
  C  C112  1  0.57860000  0.64480000  0.61210000  1
  C  C113  1  0.56020000  0.61360000  0.57170000  1
  C  C114  1  0.62080000  0.58940000  0.53450000  1
  C  C115  1  0.70890000  0.59680000  0.55110000  1
  C  C116  1  0.72860000  0.63150000  0.59580000  1
  C  C117  1  0.66780000  0.65570000  0.62530000  1
  C  C118  1  0.78430000  0.54080000  0.47830000  1
  C  C119  1  0.82500000  0.55760000  0.42970000  1
  C  C120  1  0.81920000  0.52500000  0.38330000  1
  C  C121  1  0.77270000  0.47550000  0.38540000  1
  C  C122  1  0.73200000  0.45860000  0.43390000  1
  C  C123  1  0.73780000  0.49120000  0.48040000  1
  C  C124  1  0.77580000  0.43690000  0.33750000  1
  C  C125  1  0.06750000  0.85060000  0.67360000  1
  C  C126  1  0.99150000  0.87750000  0.65060000  1
  C  C127  1  0.02030000  0.92780000  0.61290000  1
  C  C128  1  0.95060000  0.96200000  0.58710000  1
  C  C129  1  0.86330000  0.94910000  0.59750000  1
  C  C130  1  0.83780000  0.90640000  0.63120000  1
  C  C131  1  0.90670000  0.87330000  0.65620000  1
  C  C132  1  0.50540000  0.85250000  0.67290000  1
  C  C133  1  0.57860000  0.88790000  0.64480000  1
  C  C134  1  0.56020000  0.92830000  0.61360000  1
  C  C135  1  0.62080000  0.96550000  0.58940000  1
  C  C136  1  0.70890000  0.94890000  0.59680000  1
  C  C137  1  0.72860000  0.90420000  0.63150000  1
  C  C138  1  0.66780000  0.87470000  0.65570000  1
  C  C139  1  0.78430000  0.02170000  0.54080000  1
  C  C140  1  0.82500000  0.07030000  0.55760000  1
  C  C141  1  0.81920000  0.11670000  0.52500000  1
  C  C142  1  0.77270000  0.11460000  0.47550000  1
  C  C143  1  0.73200000  0.06610000  0.45860000  1
  C  C144  1  0.73780000  0.01960000  0.49120000  1
  C  C145  1  0.77580000  0.16250000  0.43690000  1
  C  C146  1  0.06750000  0.82640000  0.85060000  1
  C  C147  1  0.99150000  0.84940000  0.87750000  1
  C  C148  1  0.02030000  0.88710000  0.92780000  1
  C  C149  1  0.95060000  0.91290000  0.96200000  1
  C  C150  1  0.86330000  0.90250000  0.94910000  1
  C  C151  1  0.83780000  0.86880000  0.90640000  1
  C  C152  1  0.90670000  0.84380000  0.87330000  1
  C  C153  1  0.50540000  0.82710000  0.85250000  1
  C  C154  1  0.57860000  0.85520000  0.88790000  1
  C  C155  1  0.56020000  0.88640000  0.92830000  1
  C  C156  1  0.62080000  0.91060000  0.96550000  1
  C  C157  1  0.70890000  0.90320000  0.94890000  1
  C  C158  1  0.72860000  0.86850000  0.90420000  1
  C  C159  1  0.66780000  0.84430000  0.87470000  1
  C  C160  1  0.78430000  0.95920000  0.02170000  1
  C  C161  1  0.82500000  0.94240000  0.07030000  1
  C  C162  1  0.81920000  0.97500000  0.11670000  1
  C  C163  1  0.77270000  0.02450000  0.11460000  1
  C  C164  1  0.73200000  0.04140000  0.06610000  1
  C  C165  1  0.73780000  0.00880000  0.01960000  1
  C  C166  1  0.77580000  0.06310000  0.16250000  1
  C  C167  1  0.06750000  0.64940000  0.82640000  1
  C  C168  1  0.99150000  0.62250000  0.84940000  1
  C  C169  1  0.02030000  0.57220000  0.88710000  1
  C  C170  1  0.95060000  0.53800000  0.91290000  1
  C  C171  1  0.86330000  0.55090000  0.90250000  1
  C  C172  1  0.83780000  0.59360000  0.86880000  1
  C  C173  1  0.90670000  0.62670000  0.84380000  1
  C  C174  1  0.50540000  0.64750000  0.82710000  1
  C  C175  1  0.57860000  0.61210000  0.85520000  1
  C  C176  1  0.56020000  0.57170000  0.88640000  1
  C  C177  1  0.62080000  0.53450000  0.91060000  1
  C  C178  1  0.70890000  0.55110000  0.90320000  1
  C  C179  1  0.72860000  0.59580000  0.86850000  1
  C  C180  1  0.66780000  0.62530000  0.84430000  1
  C  C181  1  0.78430000  0.47830000  0.95920000  1
  C  C182  1  0.82500000  0.42970000  0.94240000  1
  C  C183  1  0.81920000  0.38330000  0.97500000  1
  C  C184  1  0.77270000  0.38540000  0.02450000  1
  C  C185  1  0.73200000  0.43390000  0.04140000  1
  C  C186  1  0.73780000  0.48040000  0.00880000  1
  C  C187  1  0.77580000  0.33750000  0.06310000  1
  C  C188  1  0.93250000  0.32640000  0.35060000  1
  C  C189  1  0.00850000  0.34940000  0.37750000  1
  C  C190  1  0.97970000  0.38710000  0.42780000  1
  C  C191  1  0.04940000  0.41290000  0.46200000  1
  C  C192  1  0.13670000  0.40250000  0.44910000  1
  C  C193  1  0.16220000  0.36880000  0.40640000  1
  C  C194  1  0.09330000  0.34380000  0.37330000  1
  C  C195  1  0.49460000  0.32710000  0.35250000  1
  C  C196  1  0.42140000  0.35520000  0.38790000  1
  C  C197  1  0.43980000  0.38640000  0.42830000  1
  C  C198  1  0.37920000  0.41060000  0.46550000  1
  C  C199  1  0.29110000  0.40320000  0.44890000  1
  C  C200  1  0.27140000  0.36850000  0.40420000  1
  C  C201  1  0.33220000  0.34430000  0.37470000  1
  C  C202  1  0.21570000  0.45920000  0.52170000  1
  C  C203  1  0.17500000  0.44240000  0.57030000  1
  C  C204  1  0.18080000  0.47500000  0.61670000  1
  C  C205  1  0.22730000  0.52450000  0.61460000  1
  C  C206  1  0.26800000  0.54140000  0.56610000  1
  C  C207  1  0.26220000  0.50880000  0.51960000  1
  C  C208  1  0.22420000  0.56310000  0.66250000  1
  C  C209  1  0.93250000  0.14940000  0.32640000  1
  C  C210  1  0.00850000  0.12250000  0.34940000  1
  C  C211  1  0.97970000  0.07220000  0.38710000  1
  C  C212  1  0.04940000  0.03800000  0.41290000  1
  C  C213  1  0.13670000  0.05090000  0.40250000  1
  C  C214  1  0.16220000  0.09360000  0.36880000  1
  C  C215  1  0.09330000  0.12670000  0.34380000  1
  C  C216  1  0.49460000  0.14750000  0.32710000  1
  C  C217  1  0.42140000  0.11210000  0.35520000  1
  C  C218  1  0.43980000  0.07170000  0.38640000  1
  C  C219  1  0.37920000  0.03450000  0.41060000  1
  C  C220  1  0.29110000  0.05110000  0.40320000  1
  C  C221  1  0.27140000  0.09580000  0.36850000  1
  C  C222  1  0.33220000  0.12530000  0.34430000  1
  C  C223  1  0.21570000  0.97830000  0.45920000  1
  C  C224  1  0.17500000  0.92970000  0.44240000  1
  C  C225  1  0.18080000  0.88330000  0.47500000  1
  C  C226  1  0.22730000  0.88540000  0.52450000  1
  C  C227  1  0.26800000  0.93390000  0.54140000  1
  C  C228  1  0.26220000  0.98040000  0.50880000  1
  C  C229  1  0.22420000  0.83750000  0.56310000  1
  C  C230  1  0.93250000  0.17360000  0.14940000  1
  C  C231  1  0.00850000  0.15060000  0.12250000  1
  C  C232  1  0.97970000  0.11290000  0.07220000  1
  C  C233  1  0.04940000  0.08710000  0.03800000  1
  C  C234  1  0.13670000  0.09750000  0.05090000  1
  C  C235  1  0.16220000  0.13120000  0.09360000  1
  C  C236  1  0.09330000  0.15620000  0.12670000  1
  C  C237  1  0.49460000  0.17290000  0.14750000  1
  C  C238  1  0.42140000  0.14480000  0.11210000  1
  C  C239  1  0.43980000  0.11360000  0.07170000  1
  C  C240  1  0.37920000  0.08940000  0.03450000  1
  C  C241  1  0.29110000  0.09680000  0.05110000  1
  C  C242  1  0.27140000  0.13150000  0.09580000  1
  C  C243  1  0.33220000  0.15570000  0.12530000  1
  C  C244  1  0.21570000  0.04080000  0.97830000  1
  C  C245  1  0.17500000  0.05760000  0.92970000  1
  C  C246  1  0.18080000  0.02500000  0.88330000  1
  C  C247  1  0.22730000  0.97550000  0.88540000  1
  C  C248  1  0.26800000  0.95860000  0.93390000  1
  C  C249  1  0.26220000  0.99120000  0.98040000  1
  C  C250  1  0.22420000  0.93690000  0.83750000  1
  C  C251  1  0.93250000  0.35060000  0.17360000  1
  C  C252  1  0.00850000  0.37750000  0.15060000  1
  C  C253  1  0.97970000  0.42780000  0.11290000  1
  C  C254  1  0.04940000  0.46200000  0.08710000  1
  C  C255  1  0.13670000  0.44910000  0.09750000  1
  C  C256  1  0.16220000  0.40640000  0.13120000  1
  C  C257  1  0.09330000  0.37330000  0.15620000  1
  C  C258  1  0.49460000  0.35250000  0.17290000  1
  C  C259  1  0.42140000  0.38790000  0.14480000  1
  C  C260  1  0.43980000  0.42830000  0.11360000  1
  C  C261  1  0.37920000  0.46550000  0.08940000  1
  C  C262  1  0.29110000  0.44890000  0.09680000  1
  C  C263  1  0.27140000  0.40420000  0.13150000  1
  C  C264  1  0.33220000  0.37470000  0.15570000  1
  C  C265  1  0.21570000  0.52170000  0.04080000  1
  C  C266  1  0.17500000  0.57030000  0.05760000  1
  C  C267  1  0.18080000  0.61670000  0.02500000  1
  C  C268  1  0.22730000  0.61460000  0.97550000  1
  C  C269  1  0.26800000  0.56610000  0.95860000  1
  C  C270  1  0.26220000  0.51960000  0.99120000  1
  C  C271  1  0.22420000  0.66250000  0.93690000  1
  N  N272  1  0.78860000  0.57770000  0.52500000  1
  N  N273  1  0.78860000  0.97500000  0.57770000  1
  N  N274  1  0.78860000  0.92230000  0.97500000  1
  N  N275  1  0.78860000  0.52500000  0.92230000  1
  N  N276  1  0.21140000  0.42230000  0.47500000  1
  N  N277  1  0.21140000  0.02500000  0.42230000  1
  N  N278  1  0.21140000  0.07770000  0.02500000  1
  N  N279  1  0.21140000  0.47500000  0.07770000  1
  O  O280  1  0.20720000  0.75940000  0.67840000  1
  O  O281  1  0.36980000  0.82210000  0.75850000  1
  O  O282  1  0.03980000  0.70200000  0.68970000  1
  O  O283  1  0.14770000  0.66450000  0.63610000  1
  O  O284  1  0.42620000  0.66400000  0.63480000  1
  O  O285  1  0.53210000  0.70330000  0.68850000  1
  O  O286  1  0.71320000  0.40050000  0.33800000  1
  O  O287  1  0.80030000  0.45490000  0.29280000  1
  O  O288  1  0.20720000  0.82160000  0.75940000  1
  O  O289  1  0.36980000  0.74150000  0.82210000  1
  O  O290  1  0.03980000  0.81030000  0.70200000  1
  O  O291  1  0.14770000  0.86390000  0.66450000  1
  O  O292  1  0.42620000  0.86520000  0.66400000  1
  O  O293  1  0.53210000  0.81150000  0.70330000  1
  O  O294  1  0.71320000  0.16200000  0.40050000  1
  O  O295  1  0.80030000  0.20720000  0.45490000  1
  O  O296  1  0.20720000  0.74060000  0.82160000  1
  O  O297  1  0.36980000  0.67790000  0.74150000  1
  O  O298  1  0.03980000  0.79800000  0.81030000  1
  O  O299  1  0.14770000  0.83550000  0.86390000  1
  O  O300  1  0.42620000  0.83600000  0.86520000  1
  O  O301  1  0.53210000  0.79670000  0.81150000  1
  O  O302  1  0.71320000  0.09950000  0.16200000  1
  O  O303  1  0.80030000  0.04510000  0.20720000  1
  O  O304  1  0.20720000  0.67840000  0.74060000  1
  O  O305  1  0.36980000  0.75850000  0.67790000  1
  O  O306  1  0.03980000  0.68970000  0.79800000  1
  O  O307  1  0.14770000  0.63610000  0.83550000  1
  O  O308  1  0.42620000  0.63480000  0.83600000  1
  O  O309  1  0.53210000  0.68850000  0.79670000  1
  O  O310  1  0.71320000  0.33800000  0.09950000  1
  O  O311  1  0.80030000  0.29280000  0.04510000  1
  O  O312  1  0.79280000  0.24060000  0.32160000  1
  O  O313  1  0.63020000  0.17790000  0.24150000  1
  O  O314  1  0.96020000  0.29800000  0.31030000  1
  O  O315  1  0.85230000  0.33550000  0.36390000  1
  O  O316  1  0.57380000  0.33600000  0.36520000  1
  O  O317  1  0.46790000  0.29670000  0.31150000  1
  O  O318  1  0.28680000  0.59950000  0.66200000  1
  O  O319  1  0.19970000  0.54510000  0.70720000  1
  O  O320  1  0.79280000  0.17840000  0.24060000  1
  O  O321  1  0.63020000  0.25850000  0.17790000  1
  O  O322  1  0.96020000  0.18970000  0.29800000  1
  O  O323  1  0.85230000  0.13610000  0.33550000  1
  O  O324  1  0.57380000  0.13480000  0.33600000  1
  O  O325  1  0.46790000  0.18850000  0.29670000  1
  O  O326  1  0.28680000  0.83800000  0.59950000  1
  O  O327  1  0.19970000  0.79280000  0.54510000  1
  O  O328  1  0.79280000  0.25940000  0.17840000  1
  O  O329  1  0.63020000  0.32210000  0.25850000  1
  O  O330  1  0.96020000  0.20200000  0.18970000  1
  O  O331  1  0.85230000  0.16450000  0.13610000  1
  O  O332  1  0.57380000  0.16400000  0.13480000  1
  O  O333  1  0.46790000  0.20330000  0.18850000  1
  O  O334  1  0.28680000  0.90050000  0.83800000  1
  O  O335  1  0.19970000  0.95490000  0.79280000  1
  O  O336  1  0.79280000  0.32160000  0.25940000  1
  O  O337  1  0.63020000  0.24150000  0.32210000  1
  O  O338  1  0.96020000  0.31030000  0.20200000  1
  O  O339  1  0.85230000  0.36390000  0.16450000  1
  O  O340  1  0.57380000  0.36520000  0.16400000  1
  O  O341  1  0.46790000  0.31150000  0.20330000  1
  O  O342  1  0.28680000  0.66200000  0.90050000  1
  O  O343  1  0.19970000  0.70720000  0.95490000  1
