# generated using pymatgen
data_Zr3H26C42N2O19
_symmetry_space_group_name_H-M   'P 1'
_cell_length_a   10.63000000
_cell_length_b   14.49000000
_cell_length_c   18.01000000
_cell_angle_alpha   111.74000000
_cell_angle_beta   105.82000000
_cell_angle_gamma   92.75000000
_symmetry_Int_Tables_number   1
_chemical_formula_structural   Zr3H26C42N2O19
_chemical_formula_sum   'Zr6 H52 C84 N4 O38'
_cell_volume   2444.47243409
_cell_formula_units_Z   2
loop_
 _symmetry_equiv_pos_site_id
 _symmetry_equiv_pos_as_xyz
  1  'x, y, z'
loop_
 _atom_site_type_symbol
 _atom_site_label
 _atom_site_symmetry_multiplicity
 _atom_site_fract_x
 _atom_site_fract_y
 _atom_site_fract_z
 _atom_site_occupancy
  Zr  Zr0  1  0.99778000  0.82602000  0.00119000  1
  Zr  Zr1  1  0.18871000  0.06640000  0.13336000  1
  Zr  Zr2  1  0.85402000  0.03984000  0.09132000  1
  Zr  Zr3  1  0.00222000  0.17398000  0.99881000  1
  Zr  Zr4  1  0.81129000  0.93360000  0.86664000  1
  Zr  Zr5  1  0.14598000  0.96016000  0.90868000  1
  H  H6  1  0.58370000  0.98340000  0.07670000  1
  H  H7  1  0.63150000  0.08850000  0.12510000  1
  H  H8  1  0.19110000  0.67830000  0.16870000  1
  H  H9  1  0.34000000  0.89970000  0.44980000  1
  H  H10  1  0.27960000  0.96120000  0.34540000  1
  H  H11  1  0.39230000  0.52410000  0.44170000  1
  H  H12  1  0.34610000  0.36530000  0.33340000  1
  H  H13  1  0.19350000  0.48370000  0.16560000  1
  H  H14  1  0.52290000  0.85140000  0.53380000  1
  H  H15  1  0.58870000  0.90990000  0.67940000  1
  H  H16  1  0.32700000  0.68740000  0.66200000  1
  H  H17  1  0.26120000  0.62890000  0.51640000  1
  H  H18  1  0.86500000  0.93080000  0.29270000  1
  H  H19  1  0.89250000  0.86840000  0.39650000  1
  H  H20  1  0.84710000  0.65270000  0.12220000  1
  H  H21  1  0.89040000  0.48940000  0.39350000  1
  H  H22  1  0.87270000  0.33180000  0.28880000  1
  H  H23  1  0.85110000  0.45750000  0.12170000  1
  H  H24  1  0.09540000  0.78290000  0.49330000  1
  H  H25  1  0.12010000  0.86380000  0.63550000  1
  H  H26  1  0.74970000  0.73610000  0.59380000  1
  H  H27  1  0.72500000  0.65520000  0.45160000  1
  H  H28  1  0.37990000  0.89610000  0.05580000  1
  H  H29  1  0.46800000  0.83230000  0.01970000  1
  H  H30  1  0.63810000  0.80820000  0.95430000  1
  H  H31  1  0.50620000  0.74320000  0.89530000  1
  H  H32  1  0.41630000  0.01660000  0.92330000  1
  H  H33  1  0.36850000  0.91150000  0.87490000  1
  H  H34  1  0.80890000  0.32170000  0.83130000  1
  H  H35  1  0.66000000  0.10030000  0.55020000  1
  H  H36  1  0.72040000  0.03880000  0.65460000  1
  H  H37  1  0.60770000  0.47590000  0.55830000  1
  H  H38  1  0.65390000  0.63470000  0.66666667  1
  H  H39  1  0.80650000  0.51630000  0.83440000  1
  H  H40  1  0.47710000  0.14860000  0.46620000  1
  H  H41  1  0.41130000  0.09010000  0.32060000  1
  H  H42  1  0.67300000  0.31260000  0.33800000  1
  H  H43  1  0.73880000  0.37110000  0.48360000  1
  H  H44  1  0.13500000  0.06920000  0.70730000  1
  H  H45  1  0.10750000  0.13160000  0.60350000  1
  H  H46  1  0.15290000  0.34730000  0.87780000  1
  H  H47  1  0.10960000  0.51060000  0.60650000  1
  H  H48  1  0.12730000  0.66820000  0.71120000  1
  H  H49  1  0.14890000  0.54250000  0.87830000  1
  H  H50  1  0.90460000  0.21710000  0.50670000  1
  H  H51  1  0.87990000  0.13620000  0.36450000  1
  H  H52  1  0.25030000  0.26390000  0.40620000  1
  H  H53  1  0.27500000  0.34480000  0.54840000  1
  H  H54  1  0.62010000  0.10390000  0.94420000  1
  H  H55  1  0.53200000  0.16770000  0.98030000  1
  H  H56  1  0.36190000  0.19180000  0.04570000  1
  H  H57  1  0.49380000  0.25680000  0.10470000  1
  C  C58  1  0.20380000  0.86560000  0.17650000  1
  C  C59  1  0.22940000  0.82590000  0.24670000  1
  C  C60  1  0.22100000  0.72270000  0.22510000  1
  C  C61  1  0.25710000  0.68580000  0.28760000  1
  C  C62  1  0.30170000  0.75210000  0.37180000  1
  C  C63  1  0.31020000  0.85530000  0.39340000  1
  C  C64  1  0.27400000  0.89220000  0.33090000  1
  C  C65  1  0.26110000  0.58690000  0.28580000  1
  C  C66  1  0.32060000  0.59900000  0.36850000  1
  C  C67  1  0.35250000  0.51600000  0.38630000  1
  C  C68  1  0.32480000  0.42080000  0.32150000  1
  C  C69  1  0.26520000  0.40870000  0.23880000  1
  C  C70  1  0.23340000  0.49180000  0.22090000  1
  C  C71  1  0.22040000  0.30590000  0.16950000  1
  C  C72  1  0.38550000  0.73440000  0.51060000  1
  C  C73  1  0.48370000  0.81850000  0.55950000  1
  C  C74  1  0.52310000  0.85360000  0.64670000  1
  C  C75  1  0.46440000  0.80450000  0.68510000  1
  C  C76  1  0.36630000  0.72030000  0.63630000  1
  C  C77  1  0.32690000  0.68520000  0.54910000  1
  C  C78  1  0.50310000  0.84180000  0.77980000  1
  C  C79  1  0.83980000  0.83550000  0.12800000  1
  C  C80  1  0.85340000  0.79800000  0.19720000  1
  C  C81  1  0.86690000  0.86260000  0.27940000  1
  C  C82  1  0.88340000  0.82520000  0.34160000  1
  C  C83  1  0.88630000  0.72310000  0.32160000  1
  C  C84  1  0.87270000  0.65850000  0.23940000  1
  C  C85  1  0.85620000  0.69600000  0.17720000  1
  C  C86  1  0.86950000  0.55830000  0.23890000  1
  C  C87  1  0.88130000  0.56790000  0.32030000  1
  C  C88  1  0.88250000  0.48300000  0.33900000  1
  C  C89  1  0.87190000  0.38860000  0.27630000  1
  C  C90  1  0.86010000  0.37900000  0.19490000  1
  C  C91  1  0.85890000  0.46390000  0.17620000  1
  C  C92  1  0.90770000  0.71100000  0.45830000  1
  C  C93  1  0.02610000  0.77350000  0.51340000  1
  C  C94  1  0.04090000  0.82200000  0.59860000  1
  C  C95  1  0.93740000  0.80790000  0.62870000  1
  C  C96  1  0.81900000  0.74550000  0.57360000  1
  C  C97  1  0.80420000  0.69700000  0.48840000  1
  C  C98  1  0.95200000  0.86310000  0.72150000  1
  C  C99  1  0.84540000  0.27580000  0.12550000  1
  C  C100  1  0.79620000  0.13440000  0.82350000  1
  C  C101  1  0.77060000  0.17410000  0.75330000  1
  C  C102  1  0.77900000  0.27730000  0.77490000  1
  C  C103  1  0.74290000  0.31420000  0.71240000  1
  C  C104  1  0.69830000  0.24790000  0.62820000  1
  C  C105  1  0.68980000  0.14470000  0.60660000  1
  C  C106  1  0.72600000  0.10780000  0.66910000  1
  C  C107  1  0.73890000  0.41310000  0.71420000  1
  C  C108  1  0.67940000  0.40100000  0.63150000  1
  C  C109  1  0.64750000  0.48400000  0.61370000  1
  C  C110  1  0.67520000  0.57920000  0.67850000  1
  C  C111  1  0.73480000  0.59130000  0.76120000  1
  C  C112  1  0.76660000  0.50820000  0.77910000  1
  C  C113  1  0.77960000  0.69410000  0.83050000  1
  C  C114  1  0.61450000  0.26560000  0.48940000  1
  C  C115  1  0.51630000  0.18150000  0.44050000  1
  C  C116  1  0.47690000  0.14640000  0.35330000  1
  C  C117  1  0.53560000  0.19550000  0.31490000  1
  C  C118  1  0.63370000  0.27970000  0.36370000  1
  C  C119  1  0.67310000  0.31480000  0.45090000  1
  C  C120  1  0.49690000  0.15820000  0.22020000  1
  C  C121  1  0.16020000  0.16450000  0.87200000  1
  C  C122  1  0.14660000  0.20200000  0.80280000  1
  C  C123  1  0.13310000  0.13740000  0.72060000  1
  C  C124  1  0.11660000  0.17480000  0.65840000  1
  C  C125  1  0.11370000  0.27690000  0.67840000  1
  C  C126  1  0.12730000  0.34150000  0.76060000  1
  C  C127  1  0.14380000  0.30400000  0.82280000  1
  C  C128  1  0.13050000  0.44170000  0.76110000  1
  C  C129  1  0.11870000  0.43210000  0.67970000  1
  C  C130  1  0.11750000  0.51700000  0.66100000  1
  C  C131  1  0.12810000  0.61140000  0.72370000  1
  C  C132  1  0.13990000  0.62100000  0.80510000  1
  C  C133  1  0.14110000  0.53610000  0.82380000  1
  C  C134  1  0.09230000  0.28900000  0.54170000  1
  C  C135  1  0.97390000  0.22650000  0.48660000  1
  C  C136  1  0.95910000  0.17800000  0.40140000  1
  C  C137  1  0.06260000  0.19210000  0.37130000  1
  C  C138  1  0.18100000  0.25450000  0.42640000  1
  C  C139  1  0.19580000  0.30300000  0.51160000  1
  C  C140  1  0.04800000  0.13690000  0.27850000  1
  C  C141  1  0.15460000  0.72420000  0.87450000  1
  N  N142  1  0.34100000  0.69790000  0.42130000  1
  N  N143  1  0.89260000  0.67010000  0.37050000  1
  N  N144  1  0.65900000  0.30210000  0.57870000  1
  N  N145  1  0.10740000  0.32990000  0.62950000  1
  O  O146  1  0.01680000  0.96410000  0.09620000  1
  O  O147  1  0.20080000  0.92970000  0.02600000  1
  O  O148  1  0.79460000  0.90210000  0.97690000  1
  O  O149  1  0.64040000  0.03510000  0.08290000  1
  O  O150  1  0.87940000  0.27480000  0.06290000  1
  O  O151  1  0.81100000  0.20010000  0.13720000  1
  O  O152  1  0.87270000  0.78160000  0.06490000  1
  O  O153  1  0.80140000  0.91880000  0.13890000  1
  O  O154  1  0.14060000  0.80170000  0.10330000  1
  O  O155  1  0.24380000  0.95580000  0.19640000  1
  O  O156  1  0.15250000  0.29990000  0.09850000  1
  O  O157  1  0.26250000  0.23780000  0.18980000  1
  O  O158  1  0.59960000  0.91310000  0.82130000  1
  O  O159  1  0.43600000  0.80310000  0.81060000  1
  O  O160  1  0.06490000  0.89450000  0.77020000  1
  O  O161  1  0.84760000  0.87000000  0.74240000  1
  O  O162  1  0.98270000  0.87320000  0.90530000  1
  O  O163  1  0.45510000  0.87420000  0.06370000  1
  O  O164  1  0.56800000  0.76640000  0.94750000  1
  O  O165  1  0.79920000  0.07030000  0.97400000  1
  O  O166  1  0.20540000  0.09790000  0.02310000  1
  O  O167  1  0.12060000  0.72520000  0.93710000  1
  O  O168  1  0.84750000  0.70010000  0.90150000  1
  O  O169  1  0.40040000  0.08690000  0.17870000  1
  O  O170  1  0.93510000  0.10550000  0.22980000  1
  O  O171  1  0.15240000  0.13000000  0.25760000  1
  O  O172  1  0.01730000  0.12680000  0.09470000  1
  O  O173  1  0.98320000  0.03590000  0.90380000  1
  O  O174  1  0.35960000  0.96490000  0.91710000  1
  O  O175  1  0.18900000  0.79990000  0.86280000  1
  O  O176  1  0.12730000  0.21840000  0.93510000  1
  O  O177  1  0.19860000  0.08120000  0.86110000  1
  O  O178  1  0.85940000  0.19830000  0.89670000  1
  O  O179  1  0.75620000  0.04420000  0.80360000  1
  O  O180  1  0.73750000  0.76220000  0.81020000  1
  O  O181  1  0.56400000  0.19690000  0.18940000  1
  O  O182  1  0.54490000  0.12580000  0.93630000  1
  O  O183  1  0.43200000  0.23360000  0.05250000  1
