# generated using pymatgen
data_Zr3H19C32(NO9)2
_symmetry_space_group_name_H-M   'P 1'
_cell_length_a   14.57000000
_cell_length_b   17.28000000
_cell_length_c   20.57000000
_cell_angle_alpha   90.00000000
_cell_angle_beta   90.00000000
_cell_angle_gamma   90.00000000
_symmetry_Int_Tables_number   1
_chemical_formula_structural   Zr3H19C32(NO9)2
_chemical_formula_sum   'Zr12 H76 C128 N8 O72'
_cell_volume   5178.90067200
_cell_formula_units_Z   4
loop_
 _symmetry_equiv_pos_site_id
 _symmetry_equiv_pos_as_xyz
  1  'x, y, z'
loop_
 _atom_site_type_symbol
 _atom_site_label
 _atom_site_symmetry_multiplicity
 _atom_site_fract_x
 _atom_site_fract_y
 _atom_site_fract_z
 _atom_site_occupancy
  Zr  Zr0  1  0.30163000  0.14895000  0.66369000  1
  Zr  Zr1  1  0.30163000  0.35105000  0.83631000  1
  Zr  Zr2  1  0.69837000  0.85105000  0.16369000  1
  Zr  Zr3  1  0.69837000  0.64895000  0.33631000  1
  Zr  Zr4  1  0.69837000  0.85105000  0.33631000  1
  Zr  Zr5  1  0.69837000  0.64895000  0.16369000  1
  Zr  Zr6  1  0.30163000  0.14895000  0.83631000  1
  Zr  Zr7  1  0.30163000  0.35105000  0.66369000  1
  Zr  Zr8  1  0.47232000  0.25000000  0.75000000  1
  Zr  Zr9  1  0.13244000  0.25000000  0.75000000  1
  Zr  Zr10  1  0.52768000  0.75000000  0.25000000  1
  Zr  Zr11  1  0.86756000  0.75000000  0.25000000  1
  H  H12  1  0.80034000  0.89838000  0.51066000  1
  H  H13  1  0.70438000  0.13127000  0.64894000  1
  H  H14  1  0.61460000  0.92547000  0.51312000  1
  H  H15  1  0.50693000  0.00617000  0.55980000  1
  H  H16  1  0.98761000  0.90399000  0.53724000  1
  H  H17  1  0.09619000  0.98283000  0.58507000  1
  H  H18  1  0.90043000  0.12832000  0.65055000  1
  H  H19  1  0.35671000  0.97464000  0.60163000  1
  H  H20  1  0.80034000  0.60162000  0.98934000  1
  H  H21  1  0.70438000  0.36873000  0.85106000  1
  H  H22  1  0.61460000  0.57453000  0.98688000  1
  H  H23  1  0.50693000  0.49383000  0.94020000  1
  H  H24  1  0.98761000  0.59601000  0.96276000  1
  H  H25  1  0.09619000  0.51717000  0.91493000  1
  H  H26  1  0.90043000  0.37168000  0.84945000  1
  H  H27  1  0.35671000  0.52536000  0.89837000  1
  H  H28  1  0.35722000  0.22442000  0.05795000  1
  H  H29  1  0.24965000  0.22321000  0.05949000  1
  H  H30  1  0.30219000  0.30237000  0.05873000  1
  H  H31  1  0.19966000  0.10162000  0.01066000  1
  H  H32  1  0.29562000  0.86873000  0.14894000  1
  H  H33  1  0.38540000  0.07453000  0.01312000  1
  H  H34  1  0.49307000  0.99383000  0.05980000  1
  H  H35  1  0.01239000  0.09601000  0.03724000  1
  H  H36  1  0.90381000  0.01717000  0.08507000  1
  H  H37  1  0.09957000  0.87168000  0.15055000  1
  H  H38  1  0.64329000  0.02536000  0.10163000  1
  H  H39  1  0.64278000  0.72442000  0.94205000  1
  H  H40  1  0.75035000  0.72321000  0.94051000  1
  H  H41  1  0.69781000  0.80237000  0.94127000  1
  H  H42  1  0.19966000  0.39838000  0.48934000  1
  H  H43  1  0.29562000  0.63127000  0.35106000  1
  H  H44  1  0.38540000  0.42547000  0.48688000  1
  H  H45  1  0.49307000  0.50617000  0.44020000  1
  H  H46  1  0.01239000  0.40399000  0.46276000  1
  H  H47  1  0.90381000  0.48283000  0.41493000  1
  H  H48  1  0.09957000  0.62832000  0.34945000  1
  H  H49  1  0.64329000  0.47464000  0.39837000  1
  H  H50  1  0.64278000  0.77558000  0.55795000  1
  H  H51  1  0.75035000  0.77679000  0.55949000  1
  H  H52  1  0.69781000  0.69763000  0.55873000  1
  H  H53  1  0.19966000  0.10162000  0.48934000  1
  H  H54  1  0.29562000  0.86873000  0.35106000  1
  H  H55  1  0.38540000  0.07453000  0.48688000  1
  H  H56  1  0.49307000  0.99383000  0.44020000  1
  H  H57  1  0.01239000  0.09601000  0.46276000  1
  H  H58  1  0.90381000  0.01717000  0.41493000  1
  H  H59  1  0.09957000  0.87168000  0.34945000  1
  H  H60  1  0.64329000  0.02536000  0.39837000  1
  H  H61  1  0.19966000  0.39838000  0.01066000  1
  H  H62  1  0.29562000  0.63127000  0.14894000  1
  H  H63  1  0.38540000  0.42547000  0.01312000  1
  H  H64  1  0.49307000  0.50617000  0.05980000  1
  H  H65  1  0.01239000  0.40399000  0.03724000  1
  H  H66  1  0.90381000  0.48283000  0.08507000  1
  H  H67  1  0.09957000  0.62832000  0.15055000  1
  H  H68  1  0.64329000  0.47464000  0.10163000  1
  H  H69  1  0.80034000  0.89838000  0.98934000  1
  H  H70  1  0.70438000  0.13127000  0.85106000  1
  H  H71  1  0.61460000  0.92547000  0.98688000  1
  H  H72  1  0.50693000  0.00617000  0.94020000  1
  H  H73  1  0.98761000  0.90399000  0.96276000  1
  H  H74  1  0.09619000  0.98283000  0.91493000  1
  H  H75  1  0.90043000  0.12832000  0.84945000  1
  H  H76  1  0.35671000  0.97464000  0.89837000  1
  H  H77  1  0.80034000  0.60162000  0.51066000  1
  H  H78  1  0.70438000  0.36873000  0.64894000  1
  H  H79  1  0.61460000  0.57453000  0.51312000  1
  H  H80  1  0.50693000  0.49383000  0.55980000  1
  H  H81  1  0.98761000  0.59601000  0.53724000  1
  H  H82  1  0.09619000  0.51717000  0.58507000  1
  H  H83  1  0.90043000  0.37168000  0.65055000  1
  H  H84  1  0.35671000  0.52536000  0.60163000  1
  H  H85  1  0.35722000  0.22442000  0.44205000  1
  H  H86  1  0.24965000  0.22321000  0.44051000  1
  H  H87  1  0.30219000  0.30237000  0.44127000  1
  C  C88  1  0.52110000  0.12510000  0.64060000  1
  C  C89  1  0.59410000  0.07690000  0.60840000  1
  C  C90  1  0.68700000  0.09060000  0.62200000  1
  C  C91  1  0.75250000  0.04250000  0.59440000  1
  C  C92  1  0.72310000  0.98040000  0.55410000  1
  C  C93  1  0.63220000  0.96600000  0.54010000  1
  C  C94  1  0.56890000  0.01470000  0.56800000  1
  C  C95  1  0.85110000  0.03870000  0.59830000  1
  C  C96  1  0.87760000  0.97290000  0.56190000  1
  C  C97  1  0.97060000  0.94930000  0.55840000  1
  C  C98  1  0.03440000  0.99610000  0.58760000  1
  C  C99  1  0.00910000  0.06400000  0.62160000  1
  C  C100  1  0.91720000  0.08430000  0.62740000  1
  C  C101  1  0.08230000  0.11720000  0.64970000  1
  C  C102  1  0.32180000  0.96460000  0.63850000  1
  C  C103  1  0.52110000  0.37490000  0.85940000  1
  C  C104  1  0.59410000  0.42310000  0.89160000  1
  C  C105  1  0.68700000  0.40940000  0.87800000  1
  C  C106  1  0.75250000  0.45750000  0.90560000  1
  C  C107  1  0.72310000  0.51960000  0.94590000  1
  C  C108  1  0.63220000  0.53400000  0.95990000  1
  C  C109  1  0.56890000  0.48530000  0.93200000  1
  C  C110  1  0.85110000  0.46130000  0.90170000  1
  C  C111  1  0.87760000  0.52710000  0.93810000  1
  C  C112  1  0.97060000  0.55070000  0.94160000  1
  C  C113  1  0.03440000  0.50390000  0.91240000  1
  C  C114  1  0.00910000  0.43600000  0.87840000  1
  C  C115  1  0.91720000  0.41570000  0.87260000  1
  C  C116  1  0.08230000  0.38280000  0.85030000  1
  C  C117  1  0.32180000  0.53540000  0.86150000  1
  C  C118  1  0.47890000  0.87490000  0.14060000  1
  C  C119  1  0.40590000  0.92310000  0.10840000  1
  C  C120  1  0.31300000  0.90940000  0.12200000  1
  C  C121  1  0.24750000  0.95750000  0.09440000  1
  C  C122  1  0.27690000  0.01960000  0.05410000  1
  C  C123  1  0.36780000  0.03400000  0.04010000  1
  C  C124  1  0.43110000  0.98530000  0.06800000  1
  C  C125  1  0.14890000  0.96130000  0.09830000  1
  C  C126  1  0.12240000  0.02710000  0.06190000  1
  C  C127  1  0.02940000  0.05070000  0.05840000  1
  C  C128  1  0.96560000  0.00390000  0.08760000  1
  C  C129  1  0.99090000  0.93600000  0.12160000  1
  C  C130  1  0.08280000  0.91570000  0.12740000  1
  C  C131  1  0.91770000  0.88280000  0.14970000  1
  C  C132  1  0.67820000  0.03540000  0.13850000  1
  C  C133  1  0.47890000  0.62510000  0.35940000  1
  C  C134  1  0.40590000  0.57690000  0.39160000  1
  C  C135  1  0.31300000  0.59060000  0.37800000  1
  C  C136  1  0.24750000  0.54250000  0.40560000  1
  C  C137  1  0.27690000  0.48040000  0.44590000  1
  C  C138  1  0.36780000  0.46600000  0.45990000  1
  C  C139  1  0.43110000  0.51470000  0.43200000  1
  C  C140  1  0.14890000  0.53870000  0.40170000  1
  C  C141  1  0.12240000  0.47290000  0.43810000  1
  C  C142  1  0.02940000  0.44930000  0.44160000  1
  C  C143  1  0.96560000  0.49610000  0.41240000  1
  C  C144  1  0.99090000  0.56400000  0.37840000  1
  C  C145  1  0.08280000  0.58430000  0.37260000  1
  C  C146  1  0.91770000  0.61720000  0.35030000  1
  C  C147  1  0.67820000  0.46460000  0.36150000  1
  C  C148  1  0.47890000  0.87490000  0.35940000  1
  C  C149  1  0.40590000  0.92310000  0.39160000  1
  C  C150  1  0.31300000  0.90940000  0.37800000  1
  C  C151  1  0.24750000  0.95750000  0.40560000  1
  C  C152  1  0.27690000  0.01960000  0.44590000  1
  C  C153  1  0.36780000  0.03400000  0.45990000  1
  C  C154  1  0.43110000  0.98530000  0.43200000  1
  C  C155  1  0.14890000  0.96130000  0.40170000  1
  C  C156  1  0.12240000  0.02710000  0.43810000  1
  C  C157  1  0.02940000  0.05070000  0.44160000  1
  C  C158  1  0.96560000  0.00390000  0.41240000  1
  C  C159  1  0.99090000  0.93600000  0.37840000  1
  C  C160  1  0.08280000  0.91570000  0.37260000  1
  C  C161  1  0.91770000  0.88280000  0.35030000  1
  C  C162  1  0.67820000  0.03540000  0.36150000  1
  C  C163  1  0.47890000  0.62510000  0.14060000  1
  C  C164  1  0.40590000  0.57690000  0.10840000  1
  C  C165  1  0.31300000  0.59060000  0.12200000  1
  C  C166  1  0.24750000  0.54250000  0.09440000  1
  C  C167  1  0.27690000  0.48040000  0.05410000  1
  C  C168  1  0.36780000  0.46600000  0.04010000  1
  C  C169  1  0.43110000  0.51470000  0.06800000  1
  C  C170  1  0.14890000  0.53870000  0.09830000  1
  C  C171  1  0.12240000  0.47290000  0.06190000  1
  C  C172  1  0.02940000  0.44930000  0.05840000  1
  C  C173  1  0.96560000  0.49610000  0.08760000  1
  C  C174  1  0.99090000  0.56400000  0.12160000  1
  C  C175  1  0.08280000  0.58430000  0.12740000  1
  C  C176  1  0.91770000  0.61720000  0.14970000  1
  C  C177  1  0.67820000  0.46460000  0.13850000  1
  C  C178  1  0.52110000  0.12510000  0.85940000  1
  C  C179  1  0.59410000  0.07690000  0.89160000  1
  C  C180  1  0.68700000  0.09060000  0.87800000  1
  C  C181  1  0.75250000  0.04250000  0.90560000  1
  C  C182  1  0.72310000  0.98040000  0.94590000  1
  C  C183  1  0.63220000  0.96600000  0.95990000  1
  C  C184  1  0.56890000  0.01470000  0.93200000  1
  C  C185  1  0.85110000  0.03870000  0.90170000  1
  C  C186  1  0.87760000  0.97290000  0.93810000  1
  C  C187  1  0.97060000  0.94930000  0.94160000  1
  C  C188  1  0.03440000  0.99610000  0.91240000  1
  C  C189  1  0.00910000  0.06400000  0.87840000  1
  C  C190  1  0.91720000  0.08430000  0.87260000  1
  C  C191  1  0.08230000  0.11720000  0.85030000  1
  C  C192  1  0.32180000  0.96460000  0.86150000  1
  C  C193  1  0.52110000  0.37490000  0.64060000  1
  C  C194  1  0.59410000  0.42310000  0.60840000  1
  C  C195  1  0.68700000  0.40940000  0.62200000  1
  C  C196  1  0.75250000  0.45750000  0.59440000  1
  C  C197  1  0.72310000  0.51960000  0.55410000  1
  C  C198  1  0.63220000  0.53400000  0.54010000  1
  C  C199  1  0.56890000  0.48530000  0.56800000  1
  C  C200  1  0.85110000  0.46130000  0.59830000  1
  C  C201  1  0.87760000  0.52710000  0.56190000  1
  C  C202  1  0.97060000  0.55070000  0.55840000  1
  C  C203  1  0.03440000  0.50390000  0.58760000  1
  C  C204  1  0.00910000  0.43600000  0.62160000  1
  C  C205  1  0.91720000  0.41570000  0.62740000  1
  C  C206  1  0.08230000  0.38280000  0.64970000  1
  C  C207  1  0.32180000  0.53540000  0.63850000  1
  C  C208  1  0.30050000  0.25000000  0.53030000  1
  C  C209  1  0.30260000  0.25000000  0.45680000  1
  C  C210  1  0.30050000  0.25000000  0.96970000  1
  C  C211  1  0.30260000  0.25000000  0.04320000  1
  C  C212  1  0.69950000  0.75000000  0.03030000  1
  C  C213  1  0.69740000  0.75000000  0.95680000  1
  C  C214  1  0.69950000  0.75000000  0.46970000  1
  C  C215  1  0.69740000  0.75000000  0.54320000  1
  N  N216  1  0.80050000  0.93880000  0.53510000  1
  N  N217  1  0.80050000  0.56120000  0.96490000  1
  N  N218  1  0.19950000  0.06120000  0.03510000  1
  N  N219  1  0.19950000  0.43880000  0.46490000  1
  N  N220  1  0.19950000  0.06120000  0.46490000  1
  N  N221  1  0.19950000  0.43880000  0.03510000  1
  N  N222  1  0.80050000  0.93880000  0.96490000  1
  N  N223  1  0.80050000  0.56120000  0.53510000  1
  O  O224  1  0.43910000  0.11470000  0.62250000  1
  O  O225  1  0.54710000  0.17350000  0.68360000  1
  O  O226  1  0.16450000  0.10210000  0.63150000  1
  O  O227  1  0.05630000  0.16920000  0.68560000  1
  O  O228  1  0.30070000  0.18480000  0.55840000  1
  O  O229  1  0.30630000  0.02250000  0.66480000  1
  O  O230  1  0.30850000  0.89560000  0.64240000  1
  O  O231  1  0.43910000  0.38530000  0.87750000  1
  O  O232  1  0.54710000  0.32650000  0.81640000  1
  O  O233  1  0.16450000  0.39790000  0.86850000  1
  O  O234  1  0.05630000  0.33080000  0.81440000  1
  O  O235  1  0.30070000  0.31520000  0.94160000  1
  O  O236  1  0.30630000  0.47750000  0.83520000  1
  O  O237  1  0.30850000  0.60440000  0.85760000  1
  O  O238  1  0.56090000  0.88530000  0.12250000  1
  O  O239  1  0.45290000  0.82650000  0.18360000  1
  O  O240  1  0.83550000  0.89790000  0.13150000  1
  O  O241  1  0.94370000  0.83080000  0.18560000  1
  O  O242  1  0.69930000  0.81520000  0.05840000  1
  O  O243  1  0.69370000  0.97750000  0.16480000  1
  O  O244  1  0.69150000  0.10440000  0.14240000  1
  O  O245  1  0.56090000  0.61470000  0.37750000  1
  O  O246  1  0.45290000  0.67350000  0.31640000  1
  O  O247  1  0.83550000  0.60210000  0.36850000  1
  O  O248  1  0.94370000  0.66920000  0.31440000  1
  O  O249  1  0.69930000  0.68480000  0.44160000  1
  O  O250  1  0.69370000  0.52250000  0.33520000  1
  O  O251  1  0.69150000  0.39560000  0.35760000  1
  O  O252  1  0.56090000  0.88530000  0.37750000  1
  O  O253  1  0.45290000  0.82650000  0.31640000  1
  O  O254  1  0.83550000  0.89790000  0.36850000  1
  O  O255  1  0.94370000  0.83080000  0.31440000  1
  O  O256  1  0.69930000  0.81520000  0.44160000  1
  O  O257  1  0.69370000  0.97750000  0.33520000  1
  O  O258  1  0.69150000  0.10440000  0.35760000  1
  O  O259  1  0.56090000  0.61470000  0.12250000  1
  O  O260  1  0.45290000  0.67350000  0.18360000  1
  O  O261  1  0.83550000  0.60210000  0.13150000  1
  O  O262  1  0.94370000  0.66920000  0.18560000  1
  O  O263  1  0.69930000  0.68480000  0.05840000  1
  O  O264  1  0.69370000  0.52250000  0.16480000  1
  O  O265  1  0.69150000  0.39560000  0.14240000  1
  O  O266  1  0.43910000  0.11470000  0.87750000  1
  O  O267  1  0.54710000  0.17350000  0.81640000  1
  O  O268  1  0.16450000  0.10210000  0.86850000  1
  O  O269  1  0.05630000  0.16920000  0.81440000  1
  O  O270  1  0.30070000  0.18480000  0.94160000  1
  O  O271  1  0.30630000  0.02250000  0.83520000  1
  O  O272  1  0.30850000  0.89560000  0.85760000  1
  O  O273  1  0.43910000  0.38530000  0.62250000  1
  O  O274  1  0.54710000  0.32650000  0.68360000  1
  O  O275  1  0.16450000  0.39790000  0.63150000  1
  O  O276  1  0.05630000  0.33080000  0.68560000  1
  O  O277  1  0.30070000  0.31520000  0.55840000  1
  O  O278  1  0.30630000  0.47750000  0.66480000  1
  O  O279  1  0.30850000  0.60440000  0.64240000  1
  O  O280  1  0.20630000  0.25000000  0.65410000  1
  O  O281  1  0.37280000  0.25000000  0.67950000  1
  O  O282  1  0.20630000  0.25000000  0.84590000  1
  O  O283  1  0.37280000  0.25000000  0.82050000  1
  O  O284  1  0.79370000  0.75000000  0.15410000  1
  O  O285  1  0.62720000  0.75000000  0.17950000  1
  O  O286  1  0.79370000  0.75000000  0.34590000  1
  O  O287  1  0.62720000  0.75000000  0.32050000  1
  O  O288  1  0.22870000  0.16120000  0.75000000  1
  O  O289  1  0.39380000  0.13020000  0.75000000  1
  O  O290  1  0.22870000  0.33880000  0.75000000  1
  O  O291  1  0.39380000  0.36980000  0.75000000  1
  O  O292  1  0.77130000  0.83880000  0.25000000  1
  O  O293  1  0.60620000  0.86980000  0.25000000  1
  O  O294  1  0.77130000  0.66120000  0.25000000  1
  O  O295  1  0.60620000  0.63020000  0.25000000  1
