# generated using pymatgen
data_Zr3H24C72(O4F3)4
_symmetry_space_group_name_H-M   'P 1'
_cell_length_a   28.16646726
_cell_length_b   28.16646726
_cell_length_c   28.16646726
_cell_angle_alpha   60.00000000
_cell_angle_beta   60.00000000
_cell_angle_gamma   60.00000000
_symmetry_Int_Tables_number   1
_chemical_formula_structural   Zr3H24C72(O4F3)4
_chemical_formula_sum   'Zr12 H96 C288 O64 F48'
_cell_volume   15800.91151078
_cell_formula_units_Z   4
loop_
 _symmetry_equiv_pos_site_id
 _symmetry_equiv_pos_as_xyz
  1  'x, y, z'
loop_
 _atom_site_type_symbol
 _atom_site_label
 _atom_site_symmetry_multiplicity
 _atom_site_fract_x
 _atom_site_fract_y
 _atom_site_fract_z
 _atom_site_occupancy
  C  C0  1  0.92769000  0.84225000  0.63085000  1
  C  C1  1  0.93344000  0.84696000  0.57744000  1
  C  C2  1  0.94780000  0.86654000  0.36662000  1
  C  C3  1  0.87776000  0.87776000  0.71490000  1
  C  C4  1  0.88253000  0.88253000  0.65699000  1
  C  C5  1  0.89310000  0.89310000  0.54988000  1
  C  C6  1  0.89860000  0.89860000  0.49362000  1
  C  C7  1  0.90310000  0.90310000  0.44706000  1
  C  C8  1  0.90630000  0.90630000  0.39304000  1
  C  C9  1  0.36915000  0.07231000  0.90079000  1
  C  C10  1  0.42256000  0.06656000  0.85784000  1
  C  C11  1  0.63338000  0.05220000  0.68096000  1
  C  C12  1  0.28510000  0.12224000  0.97042000  1
  C  C13  1  0.34301000  0.11747000  0.92205000  1
  C  C14  1  0.45012000  0.10690000  0.83608000  1
  C  C15  1  0.50638000  0.10140000  0.79082000  1
  C  C16  1  0.55294000  0.09690000  0.75326000  1
  C  C17  1  0.60696000  0.09370000  0.70564000  1
  C  C18  1  0.09921000  0.63085000  0.84225000  1
  C  C19  1  0.14216000  0.57744000  0.84696000  1
  C  C20  1  0.31904000  0.36662000  0.86654000  1
  C  C21  1  0.02958000  0.71490000  0.87776000  1
  C  C22  1  0.07795000  0.65699000  0.88253000  1
  C  C23  1  0.16392000  0.54988000  0.89310000  1
  C  C24  1  0.20918000  0.49362000  0.89860000  1
  C  C25  1  0.24674000  0.44706000  0.90310000  1
  C  C26  1  0.29436000  0.39304000  0.90630000  1
  C  C27  1  0.15775000  0.90079000  0.07231000  1
  C  C28  1  0.15304000  0.85784000  0.06656000  1
  C  C29  1  0.13346000  0.68096000  0.05220000  1
  C  C30  1  0.12224000  0.97042000  0.12224000  1
  C  C31  1  0.11747000  0.92205000  0.11747000  1
  C  C32  1  0.10690000  0.83608000  0.10690000  1
  C  C33  1  0.10140000  0.79082000  0.10140000  1
  C  C34  1  0.09690000  0.75326000  0.09690000  1
  C  C35  1  0.09370000  0.70564000  0.09370000  1
  C  C36  1  0.84225000  0.92769000  0.09921000  1
  C  C37  1  0.84696000  0.93344000  0.14216000  1
  C  C38  1  0.86654000  0.94780000  0.31904000  1
  C  C39  1  0.87776000  0.87776000  0.02958000  1
  C  C40  1  0.88253000  0.88253000  0.07795000  1
  C  C41  1  0.89310000  0.89310000  0.16392000  1
  C  C42  1  0.89860000  0.89860000  0.20918000  1
  C  C43  1  0.90310000  0.90310000  0.24674000  1
  C  C44  1  0.90630000  0.90630000  0.29436000  1
  C  C45  1  0.90079000  0.15775000  0.36915000  1
  C  C46  1  0.85784000  0.15304000  0.42256000  1
  C  C47  1  0.68096000  0.13346000  0.63338000  1
  C  C48  1  0.97042000  0.12224000  0.28510000  1
  C  C49  1  0.92205000  0.11747000  0.34301000  1
  C  C50  1  0.83608000  0.10690000  0.45012000  1
  C  C51  1  0.79082000  0.10140000  0.50638000  1
  C  C52  1  0.75326000  0.09690000  0.55294000  1
  C  C53  1  0.70564000  0.09370000  0.60696000  1
  C  C54  1  0.63085000  0.09921000  0.92769000  1
  C  C55  1  0.57744000  0.14216000  0.93344000  1
  C  C56  1  0.36662000  0.31904000  0.94780000  1
  C  C57  1  0.71490000  0.02958000  0.87776000  1
  C  C58  1  0.65699000  0.07795000  0.88253000  1
  C  C59  1  0.54988000  0.16392000  0.89310000  1
  C  C60  1  0.49362000  0.20918000  0.89860000  1
  C  C61  1  0.44706000  0.24674000  0.90310000  1
  C  C62  1  0.39304000  0.29436000  0.90630000  1
  C  C63  1  0.07231000  0.36915000  0.15775000  1
  C  C64  1  0.06656000  0.42256000  0.15304000  1
  C  C65  1  0.05220000  0.63338000  0.13346000  1
  C  C66  1  0.12224000  0.28510000  0.12224000  1
  C  C67  1  0.11747000  0.34301000  0.11747000  1
  C  C68  1  0.10690000  0.45012000  0.10690000  1
  C  C69  1  0.10140000  0.50638000  0.10140000  1
  C  C70  1  0.09690000  0.55294000  0.09690000  1
  C  C71  1  0.09370000  0.60696000  0.09370000  1
  C  C72  1  0.84225000  0.63085000  0.92769000  1
  C  C73  1  0.84696000  0.57744000  0.93344000  1
  C  C74  1  0.86654000  0.36662000  0.94780000  1
  C  C75  1  0.87776000  0.71490000  0.87776000  1
  C  C76  1  0.88253000  0.65699000  0.88253000  1
  C  C77  1  0.89310000  0.54988000  0.89310000  1
  C  C78  1  0.89860000  0.49362000  0.89860000  1
  C  C79  1  0.90310000  0.44706000  0.90310000  1
  C  C80  1  0.90630000  0.39304000  0.90630000  1
  C  C81  1  0.07231000  0.15775000  0.90079000  1
  C  C82  1  0.06656000  0.15304000  0.85784000  1
  C  C83  1  0.05220000  0.13346000  0.68096000  1
  C  C84  1  0.12224000  0.12224000  0.97042000  1
  C  C85  1  0.11747000  0.11747000  0.92205000  1
  C  C86  1  0.10690000  0.10690000  0.83608000  1
  C  C87  1  0.10140000  0.10140000  0.79082000  1
  C  C88  1  0.09690000  0.09690000  0.75326000  1
  C  C89  1  0.09370000  0.09370000  0.70564000  1
  C  C90  1  0.09921000  0.92769000  0.63085000  1
  C  C91  1  0.14216000  0.93344000  0.57744000  1
  C  C92  1  0.31904000  0.94780000  0.36662000  1
  C  C93  1  0.02958000  0.87776000  0.71490000  1
  C  C94  1  0.07795000  0.88253000  0.65699000  1
  C  C95  1  0.16392000  0.89310000  0.54988000  1
  C  C96  1  0.20918000  0.89860000  0.49362000  1
  C  C97  1  0.24674000  0.90310000  0.44706000  1
  C  C98  1  0.29436000  0.90630000  0.39304000  1
  C  C99  1  0.36915000  0.90079000  0.15775000  1
  C  C100  1  0.42256000  0.85784000  0.15304000  1
  C  C101  1  0.63338000  0.68096000  0.13346000  1
  C  C102  1  0.28510000  0.97042000  0.12224000  1
  C  C103  1  0.34301000  0.92205000  0.11747000  1
  C  C104  1  0.45012000  0.83608000  0.10690000  1
  C  C105  1  0.50638000  0.79082000  0.10140000  1
  C  C106  1  0.55294000  0.75326000  0.09690000  1
  C  C107  1  0.60696000  0.70564000  0.09370000  1
  C  C108  1  0.63085000  0.84225000  0.09921000  1
  C  C109  1  0.57744000  0.84696000  0.14216000  1
  C  C110  1  0.36662000  0.86654000  0.31904000  1
  C  C111  1  0.71490000  0.87776000  0.02958000  1
  C  C112  1  0.65699000  0.88253000  0.07795000  1
  C  C113  1  0.54988000  0.89310000  0.16392000  1
  C  C114  1  0.49362000  0.89860000  0.20918000  1
  C  C115  1  0.44706000  0.90310000  0.24674000  1
  C  C116  1  0.39304000  0.90630000  0.29436000  1
  C  C117  1  0.90079000  0.36915000  0.07231000  1
  C  C118  1  0.85784000  0.42256000  0.06656000  1
  C  C119  1  0.68096000  0.63338000  0.05220000  1
  C  C120  1  0.97042000  0.28510000  0.12224000  1
  C  C121  1  0.92205000  0.34301000  0.11747000  1
  C  C122  1  0.83608000  0.45012000  0.10690000  1
  C  C123  1  0.79082000  0.50638000  0.10140000  1
  C  C124  1  0.75326000  0.55294000  0.09690000  1
  C  C125  1  0.70564000  0.60696000  0.09370000  1
  C  C126  1  0.92769000  0.09921000  0.84225000  1
  C  C127  1  0.93344000  0.14216000  0.84696000  1
  C  C128  1  0.94780000  0.31904000  0.86654000  1
  C  C129  1  0.87776000  0.02958000  0.87776000  1
  C  C130  1  0.88253000  0.07795000  0.88253000  1
  C  C131  1  0.89310000  0.16392000  0.89310000  1
  C  C132  1  0.89860000  0.20918000  0.89860000  1
  C  C133  1  0.90310000  0.24674000  0.90310000  1
  C  C134  1  0.90630000  0.29436000  0.90630000  1
  C  C135  1  0.15775000  0.07231000  0.36915000  1
  C  C136  1  0.15304000  0.06656000  0.42256000  1
  C  C137  1  0.13346000  0.05220000  0.63338000  1
  C  C138  1  0.12224000  0.12224000  0.28510000  1
  C  C139  1  0.11747000  0.11747000  0.34301000  1
  C  C140  1  0.10690000  0.10690000  0.45012000  1
  C  C141  1  0.10140000  0.10140000  0.50638000  1
  C  C142  1  0.09690000  0.09690000  0.55294000  1
  C  C143  1  0.09370000  0.09370000  0.60696000  1
  C  C144  1  0.63085000  0.92769000  0.84225000  1
  C  C145  1  0.57744000  0.93344000  0.84696000  1
  C  C146  1  0.36662000  0.94780000  0.86654000  1
  C  C147  1  0.71490000  0.87776000  0.87776000  1
  C  C148  1  0.65699000  0.88253000  0.88253000  1
  C  C149  1  0.54988000  0.89310000  0.89310000  1
  C  C150  1  0.49362000  0.89860000  0.89860000  1
  C  C151  1  0.44706000  0.90310000  0.90310000  1
  C  C152  1  0.39304000  0.90630000  0.90630000  1
  C  C153  1  0.92769000  0.63085000  0.09921000  1
  C  C154  1  0.93344000  0.57744000  0.14216000  1
  C  C155  1  0.94780000  0.36662000  0.31904000  1
  C  C156  1  0.87776000  0.71490000  0.02958000  1
  C  C157  1  0.88253000  0.65699000  0.07795000  1
  C  C158  1  0.89310000  0.54988000  0.16392000  1
  C  C159  1  0.89860000  0.49362000  0.20918000  1
  C  C160  1  0.90310000  0.44706000  0.24674000  1
  C  C161  1  0.90630000  0.39304000  0.29436000  1
  C  C162  1  0.90079000  0.07231000  0.15775000  1
  C  C163  1  0.85784000  0.06656000  0.15304000  1
  C  C164  1  0.68096000  0.05220000  0.13346000  1
  C  C165  1  0.97042000  0.12224000  0.12224000  1
  C  C166  1  0.92205000  0.11747000  0.11747000  1
  C  C167  1  0.83608000  0.10690000  0.10690000  1
  C  C168  1  0.79082000  0.10140000  0.10140000  1
  C  C169  1  0.75326000  0.09690000  0.09690000  1
  C  C170  1  0.70564000  0.09370000  0.09370000  1
  C  C171  1  0.84225000  0.09921000  0.63085000  1
  C  C172  1  0.84696000  0.14216000  0.57744000  1
  C  C173  1  0.86654000  0.31904000  0.36662000  1
  C  C174  1  0.87776000  0.02958000  0.71490000  1
  C  C175  1  0.88253000  0.07795000  0.65699000  1
  C  C176  1  0.89310000  0.16392000  0.54988000  1
  C  C177  1  0.89860000  0.20918000  0.49362000  1
  C  C178  1  0.90310000  0.24674000  0.44706000  1
  C  C179  1  0.90630000  0.29436000  0.39304000  1
  C  C180  1  0.36915000  0.15775000  0.07231000  1
  C  C181  1  0.42256000  0.15304000  0.06656000  1
  C  C182  1  0.63338000  0.13346000  0.05220000  1
  C  C183  1  0.28510000  0.12224000  0.12224000  1
  C  C184  1  0.34301000  0.11747000  0.11747000  1
  C  C185  1  0.45012000  0.10690000  0.10690000  1
  C  C186  1  0.50638000  0.10140000  0.10140000  1
  C  C187  1  0.55294000  0.09690000  0.09690000  1
  C  C188  1  0.60696000  0.09370000  0.09370000  1
  C  C189  1  0.09921000  0.84225000  0.92769000  1
  C  C190  1  0.14216000  0.84696000  0.93344000  1
  C  C191  1  0.31904000  0.86654000  0.94780000  1
  C  C192  1  0.02958000  0.87776000  0.87776000  1
  C  C193  1  0.07795000  0.88253000  0.88253000  1
  C  C194  1  0.16392000  0.89310000  0.89310000  1
  C  C195  1  0.20918000  0.89860000  0.89860000  1
  C  C196  1  0.24674000  0.90310000  0.90310000  1
  C  C197  1  0.29436000  0.90630000  0.90630000  1
  C  C198  1  0.07231000  0.90079000  0.36915000  1
  C  C199  1  0.06656000  0.85784000  0.42256000  1
  C  C200  1  0.05220000  0.68096000  0.63338000  1
  C  C201  1  0.12224000  0.97042000  0.28510000  1
  C  C202  1  0.11747000  0.92205000  0.34301000  1
  C  C203  1  0.10690000  0.83608000  0.45012000  1
  C  C204  1  0.10140000  0.79082000  0.50638000  1
  C  C205  1  0.09690000  0.75326000  0.55294000  1
  C  C206  1  0.09370000  0.70564000  0.60696000  1
  C  C207  1  0.15775000  0.36915000  0.90079000  1
  C  C208  1  0.15304000  0.42256000  0.85784000  1
  C  C209  1  0.13346000  0.63338000  0.68096000  1
  C  C210  1  0.12224000  0.28510000  0.97042000  1
  C  C211  1  0.11747000  0.34301000  0.92205000  1
  C  C212  1  0.10690000  0.45012000  0.83608000  1
  C  C213  1  0.10140000  0.50638000  0.79082000  1
  C  C214  1  0.09690000  0.55294000  0.75326000  1
  C  C215  1  0.09370000  0.60696000  0.70564000  1
  C  C216  1  0.07231000  0.15775000  0.36915000  1
  C  C217  1  0.06656000  0.15304000  0.42256000  1
  C  C218  1  0.05220000  0.13346000  0.63338000  1
  C  C219  1  0.63085000  0.92769000  0.09921000  1
  C  C220  1  0.57744000  0.93344000  0.14216000  1
  C  C221  1  0.36662000  0.94780000  0.31904000  1
  C  C222  1  0.90079000  0.36915000  0.15775000  1
  C  C223  1  0.85784000  0.42256000  0.15304000  1
  C  C224  1  0.68096000  0.63338000  0.13346000  1
  C  C225  1  0.84225000  0.09921000  0.92769000  1
  C  C226  1  0.84696000  0.14216000  0.93344000  1
  C  C227  1  0.86654000  0.31904000  0.94780000  1
  C  C228  1  0.15775000  0.07231000  0.90079000  1
  C  C229  1  0.15304000  0.06656000  0.85784000  1
  C  C230  1  0.13346000  0.05220000  0.68096000  1
  C  C231  1  0.09921000  0.84225000  0.63085000  1
  C  C232  1  0.14216000  0.84696000  0.57744000  1
  C  C233  1  0.31904000  0.86654000  0.36662000  1
  C  C234  1  0.36915000  0.90079000  0.07231000  1
  C  C235  1  0.42256000  0.85784000  0.06656000  1
  C  C236  1  0.63338000  0.68096000  0.05220000  1
  C  C237  1  0.92769000  0.63085000  0.84225000  1
  C  C238  1  0.93344000  0.57744000  0.84696000  1
  C  C239  1  0.94780000  0.36662000  0.86654000  1
  C  C240  1  0.15775000  0.36915000  0.07231000  1
  C  C241  1  0.15304000  0.42256000  0.06656000  1
  C  C242  1  0.13346000  0.63338000  0.05220000  1
  C  C243  1  0.92769000  0.84225000  0.09921000  1
  C  C244  1  0.93344000  0.84696000  0.14216000  1
  C  C245  1  0.94780000  0.86654000  0.31904000  1
  C  C246  1  0.90079000  0.07231000  0.36915000  1
  C  C247  1  0.85784000  0.06656000  0.42256000  1
  C  C248  1  0.68096000  0.05220000  0.63338000  1
  C  C249  1  0.63085000  0.09921000  0.84225000  1
  C  C250  1  0.57744000  0.14216000  0.84696000  1
  C  C251  1  0.36662000  0.31904000  0.86654000  1
  C  C252  1  0.36915000  0.15775000  0.90079000  1
  C  C253  1  0.42256000  0.15304000  0.85784000  1
  C  C254  1  0.63338000  0.13346000  0.68096000  1
  C  C255  1  0.09921000  0.63085000  0.92769000  1
  C  C256  1  0.14216000  0.57744000  0.93344000  1
  C  C257  1  0.31904000  0.36662000  0.94780000  1
  C  C258  1  0.07231000  0.90079000  0.15775000  1
  C  C259  1  0.06656000  0.85784000  0.15304000  1
  C  C260  1  0.05220000  0.68096000  0.13346000  1
  C  C261  1  0.84225000  0.92769000  0.63085000  1
  C  C262  1  0.84696000  0.93344000  0.57744000  1
  C  C263  1  0.86654000  0.94780000  0.36662000  1
  C  C264  1  0.36915000  0.07231000  0.15775000  1
  C  C265  1  0.42256000  0.06656000  0.15304000  1
  C  C266  1  0.63338000  0.05220000  0.13346000  1
  C  C267  1  0.07231000  0.36915000  0.90079000  1
  C  C268  1  0.06656000  0.42256000  0.85784000  1
  C  C269  1  0.05220000  0.63338000  0.68096000  1
  C  C270  1  0.09921000  0.92769000  0.84225000  1
  C  C271  1  0.14216000  0.93344000  0.84696000  1
  C  C272  1  0.31904000  0.94780000  0.86654000  1
  C  C273  1  0.15775000  0.90079000  0.36915000  1
  C  C274  1  0.15304000  0.85784000  0.42256000  1
  C  C275  1  0.13346000  0.68096000  0.63338000  1
  C  C276  1  0.63085000  0.84225000  0.92769000  1
  C  C277  1  0.57744000  0.84696000  0.93344000  1
  C  C278  1  0.36662000  0.86654000  0.94780000  1
  C  C279  1  0.90079000  0.15775000  0.07231000  1
  C  C280  1  0.85784000  0.15304000  0.06656000  1
  C  C281  1  0.68096000  0.13346000  0.05220000  1
  C  C282  1  0.92769000  0.09921000  0.63085000  1
  C  C283  1  0.93344000  0.14216000  0.57744000  1
  C  C284  1  0.94780000  0.31904000  0.36662000  1
  C  C285  1  0.84225000  0.63085000  0.09921000  1
  C  C286  1  0.84696000  0.57744000  0.14216000  1
  C  C287  1  0.86654000  0.36662000  0.31904000  1
  F  F288  1  0.99071000  0.82541000  0.38983000  1
  F  F289  1  0.61017000  0.00929000  0.70595000  1
  F  F290  1  0.29405000  0.38983000  0.82541000  1
  F  F291  1  0.17459000  0.70595000  0.00929000  1
  F  F292  1  0.82541000  0.99071000  0.29405000  1
  F  F293  1  0.70595000  0.17459000  0.61017000  1
  F  F294  1  0.38983000  0.29405000  0.99071000  1
  F  F295  1  0.00929000  0.61017000  0.17459000  1
  F  F296  1  0.82541000  0.38983000  0.99071000  1
  F  F297  1  0.00929000  0.17459000  0.70595000  1
  F  F298  1  0.29405000  0.99071000  0.38983000  1
  F  F299  1  0.61017000  0.70595000  0.17459000  1
  F  F300  1  0.38983000  0.82541000  0.29405000  1
  F  F301  1  0.70595000  0.61017000  0.00929000  1
  F  F302  1  0.99071000  0.29405000  0.82541000  1
  F  F303  1  0.17459000  0.00929000  0.61017000  1
  F  F304  1  0.38983000  0.99071000  0.82541000  1
  F  F305  1  0.99071000  0.38983000  0.29405000  1
  F  F306  1  0.70595000  0.00929000  0.17459000  1
  F  F307  1  0.82541000  0.29405000  0.38983000  1
  F  F308  1  0.61017000  0.17459000  0.00929000  1
  F  F309  1  0.29405000  0.82541000  0.99071000  1
  F  F310  1  0.00929000  0.70595000  0.61017000  1
  F  F311  1  0.17459000  0.61017000  0.70595000  1
  F  F312  1  0.00929000  0.17459000  0.61017000  1
  F  F313  1  0.38983000  0.99071000  0.29405000  1
  F  F314  1  0.70595000  0.61017000  0.17459000  1
  F  F315  1  0.82541000  0.29405000  0.99071000  1
  F  F316  1  0.17459000  0.00929000  0.70595000  1
  F  F317  1  0.29405000  0.82541000  0.38983000  1
  F  F318  1  0.61017000  0.70595000  0.00929000  1
  F  F319  1  0.99071000  0.38983000  0.82541000  1
  F  F320  1  0.17459000  0.61017000  0.00929000  1
  F  F321  1  0.99071000  0.82541000  0.29405000  1
  F  F322  1  0.70595000  0.00929000  0.61017000  1
  F  F323  1  0.38983000  0.29405000  0.82541000  1
  F  F324  1  0.61017000  0.17459000  0.70595000  1
  F  F325  1  0.29405000  0.38983000  0.99071000  1
  F  F326  1  0.00929000  0.70595000  0.17459000  1
  F  F327  1  0.82541000  0.99071000  0.38983000  1
  F  F328  1  0.61017000  0.00929000  0.17459000  1
  F  F329  1  0.00929000  0.61017000  0.70595000  1
  F  F330  1  0.29405000  0.99071000  0.82541000  1
  F  F331  1  0.17459000  0.70595000  0.61017000  1
  F  F332  1  0.38983000  0.82541000  0.99071000  1
  F  F333  1  0.70595000  0.17459000  0.00929000  1
  F  F334  1  0.99071000  0.29405000  0.38983000  1
  F  F335  1  0.82541000  0.38983000  0.29405000  1
  H  H336  1  0.95410000  0.81190000  0.64950000  1
  H  H337  1  0.96380000  0.82000000  0.55960000  1
  H  H338  1  0.35050000  0.04590000  0.91550000  1
  H  H339  1  0.44040000  0.03620000  0.84340000  1
  H  H340  1  0.08450000  0.64950000  0.81190000  1
  H  H341  1  0.15660000  0.55960000  0.82000000  1
  H  H342  1  0.18810000  0.91550000  0.04590000  1
  H  H343  1  0.18000000  0.84340000  0.03620000  1
  H  H344  1  0.81190000  0.95410000  0.08450000  1
  H  H345  1  0.82000000  0.96380000  0.15660000  1
  H  H346  1  0.91550000  0.18810000  0.35050000  1
  H  H347  1  0.84340000  0.18000000  0.44040000  1
  H  H348  1  0.64950000  0.08450000  0.95410000  1
  H  H349  1  0.55960000  0.15660000  0.96380000  1
  H  H350  1  0.04590000  0.35050000  0.18810000  1
  H  H351  1  0.03620000  0.44040000  0.18000000  1
  H  H352  1  0.81190000  0.64950000  0.95410000  1
  H  H353  1  0.82000000  0.55960000  0.96380000  1
  H  H354  1  0.04590000  0.18810000  0.91550000  1
  H  H355  1  0.03620000  0.18000000  0.84340000  1
  H  H356  1  0.08450000  0.95410000  0.64950000  1
  H  H357  1  0.15660000  0.96380000  0.55960000  1
  H  H358  1  0.35050000  0.91550000  0.18810000  1
  H  H359  1  0.44040000  0.84340000  0.18000000  1
  H  H360  1  0.64950000  0.81190000  0.08450000  1
  H  H361  1  0.55960000  0.82000000  0.15660000  1
  H  H362  1  0.91550000  0.35050000  0.04590000  1
  H  H363  1  0.84340000  0.44040000  0.03620000  1
  H  H364  1  0.95410000  0.08450000  0.81190000  1
  H  H365  1  0.96380000  0.15660000  0.82000000  1
  H  H366  1  0.18810000  0.04590000  0.35050000  1
  H  H367  1  0.18000000  0.03620000  0.44040000  1
  H  H368  1  0.64950000  0.95410000  0.81190000  1
  H  H369  1  0.55960000  0.96380000  0.82000000  1
  H  H370  1  0.95410000  0.64950000  0.08450000  1
  H  H371  1  0.96380000  0.55960000  0.15660000  1
  H  H372  1  0.91550000  0.04590000  0.18810000  1
  H  H373  1  0.84340000  0.03620000  0.18000000  1
  H  H374  1  0.81190000  0.08450000  0.64950000  1
  H  H375  1  0.82000000  0.15660000  0.55960000  1
  H  H376  1  0.35050000  0.18810000  0.04590000  1
  H  H377  1  0.44040000  0.18000000  0.03620000  1
  H  H378  1  0.08450000  0.81190000  0.95410000  1
  H  H379  1  0.15660000  0.82000000  0.96380000  1
  H  H380  1  0.04590000  0.91550000  0.35050000  1
  H  H381  1  0.03620000  0.84340000  0.44040000  1
  H  H382  1  0.18810000  0.35050000  0.91550000  1
  H  H383  1  0.18000000  0.44040000  0.84340000  1
  H  H384  1  0.04590000  0.18810000  0.35050000  1
  H  H385  1  0.03620000  0.18000000  0.44040000  1
  H  H386  1  0.64950000  0.95410000  0.08450000  1
  H  H387  1  0.55960000  0.96380000  0.15660000  1
  H  H388  1  0.91550000  0.35050000  0.18810000  1
  H  H389  1  0.84340000  0.44040000  0.18000000  1
  H  H390  1  0.81190000  0.08450000  0.95410000  1
  H  H391  1  0.82000000  0.15660000  0.96380000  1
  H  H392  1  0.18810000  0.04590000  0.91550000  1
  H  H393  1  0.18000000  0.03620000  0.84340000  1
  H  H394  1  0.08450000  0.81190000  0.64950000  1
  H  H395  1  0.15660000  0.82000000  0.55960000  1
  H  H396  1  0.35050000  0.91550000  0.04590000  1
  H  H397  1  0.44040000  0.84340000  0.03620000  1
  H  H398  1  0.95410000  0.64950000  0.81190000  1
  H  H399  1  0.96380000  0.55960000  0.82000000  1
  H  H400  1  0.18810000  0.35050000  0.04590000  1
  H  H401  1  0.18000000  0.44040000  0.03620000  1
  H  H402  1  0.95410000  0.81190000  0.08450000  1
  H  H403  1  0.96380000  0.82000000  0.15660000  1
  H  H404  1  0.91550000  0.04590000  0.35050000  1
  H  H405  1  0.84340000  0.03620000  0.44040000  1
  H  H406  1  0.64950000  0.08450000  0.81190000  1
  H  H407  1  0.55960000  0.15660000  0.82000000  1
  H  H408  1  0.35050000  0.18810000  0.91550000  1
  H  H409  1  0.44040000  0.18000000  0.84340000  1
  H  H410  1  0.08450000  0.64950000  0.95410000  1
  H  H411  1  0.15660000  0.55960000  0.96380000  1
  H  H412  1  0.04590000  0.91550000  0.18810000  1
  H  H413  1  0.03620000  0.84340000  0.18000000  1
  H  H414  1  0.81190000  0.95410000  0.64950000  1
  H  H415  1  0.82000000  0.96380000  0.55960000  1
  H  H416  1  0.35050000  0.04590000  0.18810000  1
  H  H417  1  0.44040000  0.03620000  0.18000000  1
  H  H418  1  0.04590000  0.35050000  0.91550000  1
  H  H419  1  0.03620000  0.44040000  0.84340000  1
  H  H420  1  0.08450000  0.95410000  0.81190000  1
  H  H421  1  0.15660000  0.96380000  0.82000000  1
  H  H422  1  0.18810000  0.91550000  0.35050000  1
  H  H423  1  0.18000000  0.84340000  0.44040000  1
  H  H424  1  0.64950000  0.81190000  0.95410000  1
  H  H425  1  0.55960000  0.82000000  0.96380000  1
  H  H426  1  0.91550000  0.18810000  0.04590000  1
  H  H427  1  0.84340000  0.18000000  0.03620000  1
  H  H428  1  0.95410000  0.08450000  0.64950000  1
  H  H429  1  0.96380000  0.15660000  0.55960000  1
  H  H430  1  0.81190000  0.64950000  0.08450000  1
  H  H431  1  0.82000000  0.55960000  0.15660000  1
  O  O432  1  0.83481000  0.91625000  0.73665000  1
  O  O433  1  0.84247000  0.97259000  0.84247000  1
  O  O434  1  0.78647000  0.90451000  0.90451000  1
  O  O435  1  0.26335000  0.16519000  0.98771000  1
  O  O436  1  0.15753000  0.15753000  0.15753000  1
  O  O437  1  0.09549000  0.21353000  0.09549000  1
  O  O438  1  0.01229000  0.73665000  0.91625000  1
  O  O439  1  0.84247000  0.84247000  0.97259000  1
  O  O440  1  0.90451000  0.90451000  0.90451000  1
  O  O441  1  0.08375000  0.98771000  0.16519000  1
  O  O442  1  0.02741000  0.15753000  0.15753000  1
  O  O443  1  0.09549000  0.09549000  0.21353000  1
  O  O444  1  0.91625000  0.83481000  0.01229000  1
  O  O445  1  0.97259000  0.84247000  0.84247000  1
  O  O446  1  0.90451000  0.78647000  0.90451000  1
  O  O447  1  0.98771000  0.08375000  0.26335000  1
  O  O448  1  0.15753000  0.02741000  0.15753000  1
  O  O449  1  0.09549000  0.09549000  0.09549000  1
  O  O450  1  0.73665000  0.01229000  0.83481000  1
  O  O451  1  0.84247000  0.84247000  0.84247000  1
  O  O452  1  0.90451000  0.90451000  0.78647000  1
  O  O453  1  0.16519000  0.26335000  0.08375000  1
  O  O454  1  0.15753000  0.15753000  0.02741000  1
  O  O455  1  0.21353000  0.09549000  0.09549000  1
  O  O456  1  0.91625000  0.73665000  0.83481000  1
  O  O457  1  0.16519000  0.08375000  0.98771000  1
  O  O458  1  0.01229000  0.83481000  0.73665000  1
  O  O459  1  0.26335000  0.98771000  0.08375000  1
  O  O460  1  0.73665000  0.91625000  0.01229000  1
  O  O461  1  0.98771000  0.26335000  0.16519000  1
  O  O462  1  0.83481000  0.01229000  0.91625000  1
  O  O463  1  0.08375000  0.16519000  0.26335000  1
  O  O464  1  0.73665000  0.83481000  0.91625000  1
  O  O465  1  0.83481000  0.73665000  0.01229000  1
  O  O466  1  0.98771000  0.16519000  0.08375000  1
  O  O467  1  0.91625000  0.01229000  0.73665000  1
  O  O468  1  0.26335000  0.08375000  0.16519000  1
  O  O469  1  0.01229000  0.91625000  0.83481000  1
  O  O470  1  0.16519000  0.98771000  0.26335000  1
  O  O471  1  0.08375000  0.26335000  0.98771000  1
  O  O472  1  0.16519000  0.08375000  0.26335000  1
  O  O473  1  0.73665000  0.83481000  0.01229000  1
  O  O474  1  0.98771000  0.26335000  0.08375000  1
  O  O475  1  0.91625000  0.01229000  0.83481000  1
  O  O476  1  0.08375000  0.16519000  0.98771000  1
  O  O477  1  0.01229000  0.91625000  0.73665000  1
  O  O478  1  0.26335000  0.98771000  0.16519000  1
  O  O479  1  0.83481000  0.73665000  0.91625000  1
  O  O480  1  0.08375000  0.26335000  0.16519000  1
  O  O481  1  0.83481000  0.91625000  0.01229000  1
  O  O482  1  0.98771000  0.16519000  0.26335000  1
  O  O483  1  0.73665000  0.01229000  0.91625000  1
  O  O484  1  0.26335000  0.08375000  0.98771000  1
  O  O485  1  0.01229000  0.73665000  0.83481000  1
  O  O486  1  0.16519000  0.98771000  0.08375000  1
  O  O487  1  0.91625000  0.83481000  0.73665000  1
  O  O488  1  0.26335000  0.16519000  0.08375000  1
  O  O489  1  0.16519000  0.26335000  0.98771000  1
  O  O490  1  0.01229000  0.83481000  0.91625000  1
  O  O491  1  0.08375000  0.98771000  0.26335000  1
  O  O492  1  0.73665000  0.91625000  0.83481000  1
  O  O493  1  0.98771000  0.08375000  0.16519000  1
  O  O494  1  0.83481000  0.01229000  0.73665000  1
  O  O495  1  0.91625000  0.73665000  0.01229000  1
  Zr  Zr496  1  0.81292000  0.93708000  0.81292000  1
  Zr  Zr497  1  0.18708000  0.18708000  0.06292000  1
  Zr  Zr498  1  0.93708000  0.81292000  0.93708000  1
  Zr  Zr499  1  0.06292000  0.06292000  0.18708000  1
  Zr  Zr500  1  0.93708000  0.81292000  0.81292000  1
  Zr  Zr501  1  0.18708000  0.06292000  0.06292000  1
  Zr  Zr502  1  0.81292000  0.93708000  0.93708000  1
  Zr  Zr503  1  0.06292000  0.18708000  0.18708000  1
  Zr  Zr504  1  0.81292000  0.81292000  0.93708000  1
  Zr  Zr505  1  0.06292000  0.18708000  0.06292000  1
  Zr  Zr506  1  0.93708000  0.93708000  0.81292000  1
  Zr  Zr507  1  0.18708000  0.06292000  0.18708000  1
