# generated using pymatgen
data_Zr3H22(C10O3)4
_symmetry_space_group_name_H-M   'P 1'
_cell_length_a   18.69317583
_cell_length_b   18.69317583
_cell_length_c   19.98906134
_cell_angle_alpha   104.12291008
_cell_angle_beta   104.12291008
_cell_angle_gamma   118.56555203
_symmetry_Int_Tables_number   1
_chemical_formula_structural   Zr3H22(C10O3)4
_chemical_formula_sum   'Zr6 H44 C80 O24'
_cell_volume   5389.44172240
_cell_formula_units_Z   2
loop_
 _symmetry_equiv_pos_site_id
 _symmetry_equiv_pos_as_xyz
  1  'x, y, z'
loop_
 _atom_site_type_symbol
 _atom_site_label
 _atom_site_symmetry_multiplicity
 _atom_site_fract_x
 _atom_site_fract_y
 _atom_site_fract_z
 _atom_site_occupancy
  C  C0  1  0.73184000  0.86864000  0.81488000  1
  C  C1  1  0.63990000  0.82750000  0.75320000  1
  C  C2  1  0.57187000  0.82511000  0.76478000  1
  C  C3  1  0.48570000  0.78590000  0.70440000  1
  C  C4  1  0.47740000  0.75280000  0.62940000  1
  C  C5  1  0.54614000  0.75354000  0.61908000  1
  C  C6  1  0.62751000  0.78951000  0.67842000  1
  C  C7  1  0.39317000  0.71715000  0.56392000  1
  C  C8  1  0.35151000  0.76075000  0.56366000  1
  C  C9  1  0.35970000  0.64030000  0.50000000  1
  C  C10  1  0.27270000  0.72730000  0.50000000  1
  C  C11  1  0.08304000  0.94624000  0.81488000  1
  C  C12  1  0.11330000  0.92570000  0.75320000  1
  C  C13  1  0.19291000  0.93967000  0.76478000  1
  C  C14  1  0.21870000  0.91850000  0.70440000  1
  C  C15  1  0.15200000  0.87660000  0.62940000  1
  C  C16  1  0.07294000  0.86554000  0.61908000  1
  C  C17  1  0.05091000  0.88891000  0.67842000  1
  C  C18  1  0.17075000  0.84677000  0.56392000  1
  C  C19  1  0.21215000  0.80291000  0.56366000  1
  C  C20  1  0.14030000  0.85970000  0.50000000  1
  C  C21  1  0.22730000  0.77270000  0.50000000  1
  C  C22  1  0.05376000  0.91696000  0.18512000  1
  C  C23  1  0.07430000  0.88670000  0.24680000  1
  C  C24  1  0.06033000  0.80709000  0.23522000  1
  C  C25  1  0.08150000  0.78130000  0.29560000  1
  C  C26  1  0.12340000  0.84800000  0.37060000  1
  C  C27  1  0.13446000  0.92706000  0.38092000  1
  C  C28  1  0.11109000  0.94909000  0.32158000  1
  C  C29  1  0.15323000  0.82925000  0.43608000  1
  C  C30  1  0.19709000  0.78785000  0.43634000  1
  C  C31  1  0.13136000  0.26816000  0.18512000  1
  C  C32  1  0.17250000  0.36010000  0.24680000  1
  C  C33  1  0.17489000  0.42813000  0.23522000  1
  C  C34  1  0.21410000  0.51430000  0.29560000  1
  C  C35  1  0.24720000  0.52260000  0.37060000  1
  C  C36  1  0.24646000  0.45386000  0.38092000  1
  C  C37  1  0.21049000  0.37249000  0.32158000  1
  C  C38  1  0.28285000  0.60683000  0.43608000  1
  C  C39  1  0.23925000  0.64849000  0.43634000  1
  C  C40  1  0.26816000  0.13136000  0.18512000  1
  C  C41  1  0.36010000  0.17250000  0.24680000  1
  C  C42  1  0.42813000  0.17489000  0.23522000  1
  C  C43  1  0.51430000  0.21410000  0.29560000  1
  C  C44  1  0.52260000  0.24720000  0.37060000  1
  C  C45  1  0.45386000  0.24646000  0.38092000  1
  C  C46  1  0.37249000  0.21049000  0.32158000  1
  C  C47  1  0.60683000  0.28285000  0.43608000  1
  C  C48  1  0.64849000  0.23925000  0.43634000  1
  C  C49  1  0.64030000  0.35970000  0.50000000  1
  C  C50  1  0.72730000  0.27270000  0.50000000  1
  C  C51  1  0.91696000  0.05376000  0.18512000  1
  C  C52  1  0.88670000  0.07430000  0.24680000  1
  C  C53  1  0.80709000  0.06033000  0.23522000  1
  C  C54  1  0.78130000  0.08150000  0.29560000  1
  C  C55  1  0.84800000  0.12340000  0.37060000  1
  C  C56  1  0.92706000  0.13446000  0.38092000  1
  C  C57  1  0.94909000  0.11109000  0.32158000  1
  C  C58  1  0.82925000  0.15323000  0.43608000  1
  C  C59  1  0.78785000  0.19709000  0.43634000  1
  C  C60  1  0.85970000  0.14030000  0.50000000  1
  C  C61  1  0.77270000  0.22730000  0.50000000  1
  C  C62  1  0.94624000  0.08304000  0.81488000  1
  C  C63  1  0.92570000  0.11330000  0.75320000  1
  C  C64  1  0.93967000  0.19291000  0.76478000  1
  C  C65  1  0.91850000  0.21870000  0.70440000  1
  C  C66  1  0.87660000  0.15200000  0.62940000  1
  C  C67  1  0.86554000  0.07294000  0.61908000  1
  C  C68  1  0.88891000  0.05091000  0.67842000  1
  C  C69  1  0.84677000  0.17075000  0.56392000  1
  C  C70  1  0.80291000  0.21215000  0.56366000  1
  C  C71  1  0.86864000  0.73184000  0.81488000  1
  C  C72  1  0.82750000  0.63990000  0.75320000  1
  C  C73  1  0.82511000  0.57187000  0.76478000  1
  C  C74  1  0.78590000  0.48570000  0.70440000  1
  C  C75  1  0.75280000  0.47740000  0.62940000  1
  C  C76  1  0.75354000  0.54614000  0.61908000  1
  C  C77  1  0.78951000  0.62751000  0.67842000  1
  C  C78  1  0.71715000  0.39317000  0.56392000  1
  C  C79  1  0.76075000  0.35151000  0.56366000  1
  H  H80  1  0.58040000  0.85060000  0.81580000  1
  H  H81  1  0.43730000  0.78270000  0.71440000  1
  H  H82  1  0.53840000  0.72800000  0.56840000  1
  H  H83  1  0.67400000  0.78820000  0.66820000  1
  H  H84  1  0.37600000  0.81420000  0.60680000  1
  H  H85  1  0.38930000  0.61070000  0.50000000  1
  H  H86  1  0.23540000  0.96520000  0.81580000  1
  H  H87  1  0.27710000  0.93170000  0.71440000  1
  H  H88  1  0.03000000  0.84040000  0.56840000  1
  H  H89  1  0.99420000  0.88000000  0.66820000  1
  H  H90  1  0.23080000  0.79260000  0.60680000  1
  H  H91  1  0.11070000  0.88930000  0.50000000  1
  H  H92  1  0.03480000  0.76460000  0.18420000  1
  H  H93  1  0.06830000  0.72290000  0.28560000  1
  H  H94  1  0.15960000  0.97000000  0.43160000  1
  H  H95  1  0.12000000  0.00580000  0.33180000  1
  H  H96  1  0.20740000  0.76920000  0.39320000  1
  H  H97  1  0.14940000  0.41960000  0.18420000  1
  H  H98  1  0.21730000  0.56270000  0.28560000  1
  H  H99  1  0.27200000  0.46160000  0.43160000  1
  H  H100  1  0.21180000  0.32600000  0.33180000  1
  H  H101  1  0.18580000  0.62400000  0.39320000  1
  H  H102  1  0.41960000  0.14940000  0.18420000  1
  H  H103  1  0.56270000  0.21730000  0.28560000  1
  H  H104  1  0.46160000  0.27200000  0.43160000  1
  H  H105  1  0.32600000  0.21180000  0.33180000  1
  H  H106  1  0.62400000  0.18580000  0.39320000  1
  H  H107  1  0.61070000  0.38930000  0.50000000  1
  H  H108  1  0.76460000  0.03480000  0.18420000  1
  H  H109  1  0.72290000  0.06830000  0.28560000  1
  H  H110  1  0.97000000  0.15960000  0.43160000  1
  H  H111  1  0.00580000  0.12000000  0.33180000  1
  H  H112  1  0.76920000  0.20740000  0.39320000  1
  H  H113  1  0.88930000  0.11070000  0.50000000  1
  H  H114  1  0.96520000  0.23540000  0.81580000  1
  H  H115  1  0.93170000  0.27710000  0.71440000  1
  H  H116  1  0.84040000  0.03000000  0.56840000  1
  H  H117  1  0.88000000  0.99420000  0.66820000  1
  H  H118  1  0.79260000  0.23080000  0.60680000  1
  H  H119  1  0.85060000  0.58040000  0.81580000  1
  H  H120  1  0.78270000  0.43730000  0.71440000  1
  H  H121  1  0.72800000  0.53840000  0.56840000  1
  H  H122  1  0.78820000  0.67400000  0.66820000  1
  H  H123  1  0.81420000  0.37600000  0.60680000  1
  O  O124  1  0.78863000  0.87025000  0.79708000  1
  O  O125  1  0.73659000  0.89297000  0.88336000  1
  O  O126  1  0.87150000  0.87150000  0.93160000  1
  O  O127  1  0.90940000  0.02160000  0.93100000  1
  O  O128  1  0.00845000  0.92683000  0.79708000  1
  O  O129  1  0.14677000  0.99039000  0.88336000  1
  O  O130  1  0.06010000  0.06010000  0.93160000  1
  O  O131  1  0.02160000  0.90940000  0.93100000  1
  O  O132  1  0.07317000  0.99155000  0.20292000  1
  O  O133  1  0.00961000  0.85323000  0.11664000  1
  O  O134  1  0.93990000  0.93990000  0.06840000  1
  O  O135  1  0.09060000  0.97840000  0.06900000  1
  O  O136  1  0.12975000  0.21137000  0.20292000  1
  O  O137  1  0.10703000  0.26341000  0.11664000  1
  O  O138  1  0.12850000  0.12850000  0.06840000  1
  O  O139  1  0.97840000  0.09060000  0.06900000  1
  O  O140  1  0.21137000  0.12975000  0.20292000  1
  O  O141  1  0.26341000  0.10703000  0.11664000  1
  O  O142  1  0.99155000  0.07317000  0.20292000  1
  O  O143  1  0.85323000  0.00961000  0.11664000  1
  O  O144  1  0.92683000  0.00845000  0.79708000  1
  O  O145  1  0.99039000  0.14677000  0.88336000  1
  O  O146  1  0.87025000  0.78863000  0.79708000  1
  O  O147  1  0.89297000  0.73659000  0.88336000  1
  Zr  Zr148  1  0.93032000  0.93032000  0.86064000  1
  Zr  Zr149  1  0.85279000  0.96303000  1.00000000  1
  Zr  Zr150  1  0.14721000  0.03697000  0.00000000  1
  Zr  Zr151  1  0.06968000  0.06968000  0.13936000  1
  Zr  Zr152  1  0.96303000  0.85279000  0.00000000  1
  Zr  Zr153  1  0.03697000  0.14721000  1.00000000  1
