# generated using pymatgen
data_Zr3H24(C8O3)4
_symmetry_space_group_name_H-M   'P 1'
_cell_length_a   15.70600000
_cell_length_b   24.05280000
_cell_length_c   24.05280000
_cell_angle_alpha   90.00000000
_cell_angle_beta   90.00000000
_cell_angle_gamma   90.00000000
_symmetry_Int_Tables_number   1
_chemical_formula_structural   Zr3H24(C8O3)4
_chemical_formula_sum   'Zr12 H96 C128 O48'
_cell_volume   9086.50507222
_cell_formula_units_Z   4
loop_
 _symmetry_equiv_pos_site_id
 _symmetry_equiv_pos_as_xyz
  1  'x, y, z'
loop_
 _atom_site_type_symbol
 _atom_site_label
 _atom_site_symmetry_multiplicity
 _atom_site_fract_x
 _atom_site_fract_y
 _atom_site_fract_z
 _atom_site_occupancy
  Zr  Zr0  1  0.38798000  0.07330000  0.50000000  1
  Zr  Zr1  1  0.50000000  1.00000000  0.39831000  1
  Zr  Zr2  1  0.88798000  0.50000000  0.07330000  1
  Zr  Zr3  1  0.00000000  0.60169000  0.00000000  1
  Zr  Zr4  1  0.38798000  0.92670000  0.50000000  1
  Zr  Zr5  1  0.50000000  1.00000000  0.60169000  1
  Zr  Zr6  1  0.88798000  0.50000000  0.92670000  1
  Zr  Zr7  1  0.00000000  0.39831000  0.00000000  1
  Zr  Zr8  1  0.61202000  0.07330000  0.50000000  1
  Zr  Zr9  1  0.11202000  0.50000000  0.07330000  1
  Zr  Zr10  1  0.61202000  0.92670000  0.50000000  1
  Zr  Zr11  1  0.11202000  0.50000000  0.92670000  1
  H  H12  1  0.40832000  0.10354000  0.26088000  1
  H  H13  1  0.19164000  0.22939000  0.30553000  1
  H  H14  1  0.24420000  0.16734000  0.37268000  1
  H  H15  1  0.38200000  0.12250000  0.16023000  1
  H  H16  1  0.41871000  0.18412000  0.16769000  1
  H  H17  1  0.32491000  0.17497000  0.14337000  1
  H  H18  1  0.90832000  0.73912000  0.10354000  1
  H  H19  1  0.69164000  0.69447000  0.22939000  1
  H  H20  1  0.74420000  0.62732000  0.16734000  1
  H  H21  1  0.88200000  0.83977000  0.12250000  1
  H  H22  1  0.91871000  0.83231000  0.18412000  1
  H  H23  1  0.82491000  0.85663000  0.17497000  1
  H  H24  1  0.40832000  0.89646000  0.73912000  1
  H  H25  1  0.19164000  0.77061000  0.69447000  1
  H  H26  1  0.24420000  0.83266000  0.62732000  1
  H  H27  1  0.38200000  0.87750000  0.83977000  1
  H  H28  1  0.41871000  0.81588000  0.83231000  1
  H  H29  1  0.32491000  0.82503000  0.85663000  1
  H  H30  1  0.90832000  0.26088000  0.89646000  1
  H  H31  1  0.69164000  0.30553000  0.77061000  1
  H  H32  1  0.74420000  0.37268000  0.83266000  1
  H  H33  1  0.88200000  0.16023000  0.87750000  1
  H  H34  1  0.91871000  0.16769000  0.81588000  1
  H  H35  1  0.82491000  0.14337000  0.82503000  1
  H  H36  1  0.59168000  0.10354000  0.73912000  1
  H  H37  1  0.80836000  0.22939000  0.69447000  1
  H  H38  1  0.75580000  0.16734000  0.62732000  1
  H  H39  1  0.61800000  0.12250000  0.83977000  1
  H  H40  1  0.58129000  0.18412000  0.83231000  1
  H  H41  1  0.67509000  0.17497000  0.85663000  1
  H  H42  1  0.09168000  0.26088000  0.10354000  1
  H  H43  1  0.30836000  0.30553000  0.22939000  1
  H  H44  1  0.25580000  0.37268000  0.16734000  1
  H  H45  1  0.11800000  0.16023000  0.12250000  1
  H  H46  1  0.08129000  0.16769000  0.18412000  1
  H  H47  1  0.17509000  0.14337000  0.17497000  1
  H  H48  1  0.59168000  0.89646000  0.26088000  1
  H  H49  1  0.80836000  0.77061000  0.30553000  1
  H  H50  1  0.75580000  0.83266000  0.37268000  1
  H  H51  1  0.61800000  0.87750000  0.16023000  1
  H  H52  1  0.58129000  0.81588000  0.16769000  1
  H  H53  1  0.67509000  0.82503000  0.14337000  1
  H  H54  1  0.09168000  0.73912000  0.89646000  1
  H  H55  1  0.30836000  0.69447000  0.77061000  1
  H  H56  1  0.25580000  0.62732000  0.83266000  1
  H  H57  1  0.11800000  0.83977000  0.87750000  1
  H  H58  1  0.08129000  0.83231000  0.81588000  1
  H  H59  1  0.17509000  0.85663000  0.82503000  1
  H  H60  1  0.59168000  0.89646000  0.73912000  1
  H  H61  1  0.80836000  0.77061000  0.69447000  1
  H  H62  1  0.75580000  0.83266000  0.62732000  1
  H  H63  1  0.61800000  0.87750000  0.83977000  1
  H  H64  1  0.58129000  0.81588000  0.83231000  1
  H  H65  1  0.67509000  0.82503000  0.85663000  1
  H  H66  1  0.09168000  0.26088000  0.89646000  1
  H  H67  1  0.30836000  0.30553000  0.77061000  1
  H  H68  1  0.25580000  0.37268000  0.83266000  1
  H  H69  1  0.11800000  0.16023000  0.87750000  1
  H  H70  1  0.08129000  0.16769000  0.81588000  1
  H  H71  1  0.17509000  0.14337000  0.82503000  1
  H  H72  1  0.59168000  0.10354000  0.26088000  1
  H  H73  1  0.80836000  0.22939000  0.30553000  1
  H  H74  1  0.75580000  0.16734000  0.37268000  1
  H  H75  1  0.61800000  0.12250000  0.16023000  1
  H  H76  1  0.58129000  0.18412000  0.16769000  1
  H  H77  1  0.67509000  0.17497000  0.14337000  1
  H  H78  1  0.09168000  0.73912000  0.10354000  1
  H  H79  1  0.30836000  0.69447000  0.22939000  1
  H  H80  1  0.25580000  0.62732000  0.16734000  1
  H  H81  1  0.11800000  0.83977000  0.12250000  1
  H  H82  1  0.08129000  0.83231000  0.18412000  1
  H  H83  1  0.17509000  0.85663000  0.17497000  1
  H  H84  1  0.40832000  0.89646000  0.26088000  1
  H  H85  1  0.19164000  0.77061000  0.30553000  1
  H  H86  1  0.24420000  0.83266000  0.37268000  1
  H  H87  1  0.38200000  0.87750000  0.16023000  1
  H  H88  1  0.41871000  0.81588000  0.16769000  1
  H  H89  1  0.32491000  0.82503000  0.14337000  1
  H  H90  1  0.90832000  0.73912000  0.89646000  1
  H  H91  1  0.69164000  0.69447000  0.77061000  1
  H  H92  1  0.74420000  0.62732000  0.83266000  1
  H  H93  1  0.88200000  0.83977000  0.87750000  1
  H  H94  1  0.91871000  0.83231000  0.81588000  1
  H  H95  1  0.82491000  0.85663000  0.82503000  1
  H  H96  1  0.40832000  0.10354000  0.73912000  1
  H  H97  1  0.19164000  0.22939000  0.69447000  1
  H  H98  1  0.24420000  0.16734000  0.62732000  1
  H  H99  1  0.38200000  0.12250000  0.83977000  1
  H  H100  1  0.41871000  0.18412000  0.83231000  1
  H  H101  1  0.32491000  0.17497000  0.85663000  1
  H  H102  1  0.90832000  0.26088000  0.10354000  1
  H  H103  1  0.69164000  0.30553000  0.22939000  1
  H  H104  1  0.74420000  0.37268000  0.16734000  1
  H  H105  1  0.88200000  0.16023000  0.12250000  1
  H  H106  1  0.91871000  0.16769000  0.18412000  1
  H  H107  1  0.82491000  0.14337000  0.17497000  1
  C  C108  1  0.36590000  0.09330000  0.36600000  1
  C  C109  1  0.32810000  0.12940000  0.32310000  1
  C  C110  1  0.36290000  0.12820000  0.26940000  1
  C  C111  1  0.33090000  0.16310000  0.22900000  1
  C  C112  1  0.26720000  0.20130000  0.24210000  1
  C  C113  1  0.23470000  0.20330000  0.29600000  1
  C  C114  1  0.26640000  0.16640000  0.33600000  1
  C  C115  1  0.36740000  0.16100000  0.16970000  1
  C  C116  1  0.86590000  0.63400000  0.09330000  1
  C  C117  1  0.82810000  0.67690000  0.12940000  1
  C  C118  1  0.86290000  0.73060000  0.12820000  1
  C  C119  1  0.83090000  0.77100000  0.16310000  1
  C  C120  1  0.76720000  0.75790000  0.20130000  1
  C  C121  1  0.73470000  0.70400000  0.20330000  1
  C  C122  1  0.76640000  0.66400000  0.16640000  1
  C  C123  1  0.86740000  0.83030000  0.16100000  1
  C  C124  1  0.36590000  0.90670000  0.63400000  1
  C  C125  1  0.32810000  0.87060000  0.67690000  1
  C  C126  1  0.36290000  0.87180000  0.73060000  1
  C  C127  1  0.33090000  0.83690000  0.77100000  1
  C  C128  1  0.26720000  0.79870000  0.75790000  1
  C  C129  1  0.23470000  0.79670000  0.70400000  1
  C  C130  1  0.26640000  0.83360000  0.66400000  1
  C  C131  1  0.36740000  0.83900000  0.83030000  1
  C  C132  1  0.86590000  0.36600000  0.90670000  1
  C  C133  1  0.82810000  0.32310000  0.87060000  1
  C  C134  1  0.86290000  0.26940000  0.87180000  1
  C  C135  1  0.83090000  0.22900000  0.83690000  1
  C  C136  1  0.76720000  0.24210000  0.79870000  1
  C  C137  1  0.73470000  0.29600000  0.79670000  1
  C  C138  1  0.76640000  0.33600000  0.83360000  1
  C  C139  1  0.86740000  0.16970000  0.83900000  1
  C  C140  1  0.63410000  0.09330000  0.63400000  1
  C  C141  1  0.67190000  0.12940000  0.67690000  1
  C  C142  1  0.63710000  0.12820000  0.73060000  1
  C  C143  1  0.66910000  0.16310000  0.77100000  1
  C  C144  1  0.73280000  0.20130000  0.75790000  1
  C  C145  1  0.76530000  0.20330000  0.70400000  1
  C  C146  1  0.73360000  0.16640000  0.66400000  1
  C  C147  1  0.63260000  0.16100000  0.83030000  1
  C  C148  1  0.13410000  0.36600000  0.09330000  1
  C  C149  1  0.17190000  0.32310000  0.12940000  1
  C  C150  1  0.13710000  0.26940000  0.12820000  1
  C  C151  1  0.16910000  0.22900000  0.16310000  1
  C  C152  1  0.23280000  0.24210000  0.20130000  1
  C  C153  1  0.26530000  0.29600000  0.20330000  1
  C  C154  1  0.23360000  0.33600000  0.16640000  1
  C  C155  1  0.13260000  0.16970000  0.16100000  1
  C  C156  1  0.63410000  0.90670000  0.36600000  1
  C  C157  1  0.67190000  0.87060000  0.32310000  1
  C  C158  1  0.63710000  0.87180000  0.26940000  1
  C  C159  1  0.66910000  0.83690000  0.22900000  1
  C  C160  1  0.73280000  0.79870000  0.24210000  1
  C  C161  1  0.76530000  0.79670000  0.29600000  1
  C  C162  1  0.73360000  0.83360000  0.33600000  1
  C  C163  1  0.63260000  0.83900000  0.16970000  1
  C  C164  1  0.13410000  0.63400000  0.90670000  1
  C  C165  1  0.17190000  0.67690000  0.87060000  1
  C  C166  1  0.13710000  0.73060000  0.87180000  1
  C  C167  1  0.16910000  0.77100000  0.83690000  1
  C  C168  1  0.23280000  0.75790000  0.79870000  1
  C  C169  1  0.26530000  0.70400000  0.79670000  1
  C  C170  1  0.23360000  0.66400000  0.83360000  1
  C  C171  1  0.13260000  0.83030000  0.83900000  1
  C  C172  1  0.63410000  0.90670000  0.63400000  1
  C  C173  1  0.67190000  0.87060000  0.67690000  1
  C  C174  1  0.63710000  0.87180000  0.73060000  1
  C  C175  1  0.66910000  0.83690000  0.77100000  1
  C  C176  1  0.73280000  0.79870000  0.75790000  1
  C  C177  1  0.76530000  0.79670000  0.70400000  1
  C  C178  1  0.73360000  0.83360000  0.66400000  1
  C  C179  1  0.63260000  0.83900000  0.83030000  1
  C  C180  1  0.13410000  0.36600000  0.90670000  1
  C  C181  1  0.17190000  0.32310000  0.87060000  1
  C  C182  1  0.13710000  0.26940000  0.87180000  1
  C  C183  1  0.16910000  0.22900000  0.83690000  1
  C  C184  1  0.23280000  0.24210000  0.79870000  1
  C  C185  1  0.26530000  0.29600000  0.79670000  1
  C  C186  1  0.23360000  0.33600000  0.83360000  1
  C  C187  1  0.13260000  0.16970000  0.83900000  1
  C  C188  1  0.63410000  0.09330000  0.36600000  1
  C  C189  1  0.67190000  0.12940000  0.32310000  1
  C  C190  1  0.63710000  0.12820000  0.26940000  1
  C  C191  1  0.66910000  0.16310000  0.22900000  1
  C  C192  1  0.73280000  0.20130000  0.24210000  1
  C  C193  1  0.76530000  0.20330000  0.29600000  1
  C  C194  1  0.73360000  0.16640000  0.33600000  1
  C  C195  1  0.63260000  0.16100000  0.16970000  1
  C  C196  1  0.13410000  0.63400000  0.09330000  1
  C  C197  1  0.17190000  0.67690000  0.12940000  1
  C  C198  1  0.13710000  0.73060000  0.12820000  1
  C  C199  1  0.16910000  0.77100000  0.16310000  1
  C  C200  1  0.23280000  0.75790000  0.20130000  1
  C  C201  1  0.26530000  0.70400000  0.20330000  1
  C  C202  1  0.23360000  0.66400000  0.16640000  1
  C  C203  1  0.13260000  0.83030000  0.16100000  1
  C  C204  1  0.36590000  0.90670000  0.36600000  1
  C  C205  1  0.32810000  0.87060000  0.32310000  1
  C  C206  1  0.36290000  0.87180000  0.26940000  1
  C  C207  1  0.33090000  0.83690000  0.22900000  1
  C  C208  1  0.26720000  0.79870000  0.24210000  1
  C  C209  1  0.23470000  0.79670000  0.29600000  1
  C  C210  1  0.26640000  0.83360000  0.33600000  1
  C  C211  1  0.36740000  0.83900000  0.16970000  1
  C  C212  1  0.86590000  0.63400000  0.90670000  1
  C  C213  1  0.82810000  0.67690000  0.87060000  1
  C  C214  1  0.86290000  0.73060000  0.87180000  1
  C  C215  1  0.83090000  0.77100000  0.83690000  1
  C  C216  1  0.76720000  0.75790000  0.79870000  1
  C  C217  1  0.73470000  0.70400000  0.79670000  1
  C  C218  1  0.76640000  0.66400000  0.83360000  1
  C  C219  1  0.86740000  0.83030000  0.83900000  1
  C  C220  1  0.36590000  0.09330000  0.63400000  1
  C  C221  1  0.32810000  0.12940000  0.67690000  1
  C  C222  1  0.36290000  0.12820000  0.73060000  1
  C  C223  1  0.33090000  0.16310000  0.77100000  1
  C  C224  1  0.26720000  0.20130000  0.75790000  1
  C  C225  1  0.23470000  0.20330000  0.70400000  1
  C  C226  1  0.26640000  0.16640000  0.66400000  1
  C  C227  1  0.36740000  0.16100000  0.83030000  1
  C  C228  1  0.86590000  0.36600000  0.09330000  1
  C  C229  1  0.82810000  0.32310000  0.12940000  1
  C  C230  1  0.86290000  0.26940000  0.12820000  1
  C  C231  1  0.83090000  0.22900000  0.16310000  1
  C  C232  1  0.76720000  0.24210000  0.20130000  1
  C  C233  1  0.73470000  0.29600000  0.20330000  1
  C  C234  1  0.76640000  0.33600000  0.16640000  1
  C  C235  1  0.86740000  0.16970000  0.16100000  1
  O  O236  1  0.41660000  0.05499000  0.35037000  1
  O  O237  1  0.34350000  0.10306000  0.41647000  1
  O  O238  1  0.38980000  1.00000000  0.45000000  1
  O  O239  1  0.50000000  0.07310000  0.45050000  1
  O  O240  1  0.91660000  0.64963000  0.05499000  1
  O  O241  1  0.84350000  0.58353000  0.10306000  1
  O  O242  1  0.88980000  0.55000000  0.00000000  1
  O  O243  1  1.00000000  0.54950000  0.07310000  1
  O  O244  1  0.41660000  0.94501000  0.64963000  1
  O  O245  1  0.34350000  0.89694000  0.58353000  1
  O  O246  1  0.38980000  0.00000000  0.55000000  1
  O  O247  1  0.50000000  0.92690000  0.54950000  1
  O  O248  1  0.91660000  0.35037000  0.94501000  1
  O  O249  1  0.84350000  0.41647000  0.89694000  1
  O  O250  1  0.88980000  0.45000000  0.00000000  1
  O  O251  1  0.00000000  0.45050000  0.92690000  1
  O  O252  1  0.58340000  0.05499000  0.64963000  1
  O  O253  1  0.65650000  0.10306000  0.58353000  1
  O  O254  1  0.61020000  0.00000000  0.55000000  1
  O  O255  1  0.50000000  0.07310000  0.54950000  1
  O  O256  1  0.08340000  0.35037000  0.05499000  1
  O  O257  1  0.15650000  0.41647000  0.10306000  1
  O  O258  1  0.11020000  0.45000000  0.00000000  1
  O  O259  1  0.00000000  0.45050000  0.07310000  1
  O  O260  1  0.58340000  0.94501000  0.35037000  1
  O  O261  1  0.65650000  0.89694000  0.41647000  1
  O  O262  1  0.61020000  1.00000000  0.45000000  1
  O  O263  1  0.50000000  0.92690000  0.45050000  1
  O  O264  1  0.08340000  0.64963000  0.94501000  1
  O  O265  1  0.15650000  0.58353000  0.89694000  1
  O  O266  1  0.11020000  0.55000000  0.00000000  1
  O  O267  1  0.00000000  0.54950000  0.92690000  1
  O  O268  1  0.58340000  0.94501000  0.64963000  1
  O  O269  1  0.65650000  0.89694000  0.58353000  1
  O  O270  1  0.08340000  0.35037000  0.94501000  1
  O  O271  1  0.15650000  0.41647000  0.89694000  1
  O  O272  1  0.58340000  0.05499000  0.35037000  1
  O  O273  1  0.65650000  0.10306000  0.41647000  1
  O  O274  1  0.08340000  0.64963000  0.05499000  1
  O  O275  1  0.15650000  0.58353000  0.10306000  1
  O  O276  1  0.41660000  0.94501000  0.35037000  1
  O  O277  1  0.34350000  0.89694000  0.41647000  1
  O  O278  1  0.91660000  0.64963000  0.94501000  1
  O  O279  1  0.84350000  0.58353000  0.89694000  1
  O  O280  1  0.41660000  0.05499000  0.64963000  1
  O  O281  1  0.34350000  0.10306000  0.58353000  1
  O  O282  1  0.91660000  0.35037000  0.05499000  1
  O  O283  1  0.84350000  0.41647000  0.10306000  1
