# generated using pymatgen
data_Zr3H34(C23O6)2
_symmetry_space_group_name_H-M   'P 1'
_cell_length_a   18.88060000
_cell_length_b   18.88060000
_cell_length_c   33.24130000
_cell_angle_alpha   90.00000000
_cell_angle_beta   90.00000000
_cell_angle_gamma   90.00000000
_symmetry_Int_Tables_number   1
_chemical_formula_structural   Zr3H34(C23O6)2
_chemical_formula_sum   'Zr12 H136 C184 O48'
_cell_volume   11849.76077358
_cell_formula_units_Z   4
loop_
 _symmetry_equiv_pos_site_id
 _symmetry_equiv_pos_as_xyz
  1  'x, y, z'
loop_
 _atom_site_type_symbol
 _atom_site_label
 _atom_site_symmetry_multiplicity
 _atom_site_fract_x
 _atom_site_fract_y
 _atom_site_fract_z
 _atom_site_occupancy
  Zr  Zr0  1  0.50000000  0.50000000  0.42667000  1
  Zr  Zr1  1  0.00000000  0.00000000  0.07333000  1
  Zr  Zr2  1  0.50000000  0.50000000  0.57333000  1
  Zr  Zr3  1  0.00000000  0.00000000  0.92667000  1
  Zr  Zr4  1  0.62320000  0.54826000  0.50000000  1
  Zr  Zr5  1  0.37680000  0.45174000  0.50000000  1
  Zr  Zr6  1  0.45174000  0.62320000  0.50000000  1
  Zr  Zr7  1  0.54826000  0.37680000  0.50000000  1
  Zr  Zr8  1  0.87680000  0.04826000  0.00000000  1
  Zr  Zr9  1  0.12320000  0.95174000  0.00000000  1
  Zr  Zr10  1  0.04826000  0.12320000  0.00000000  1
  Zr  Zr11  1  0.95174000  0.87680000  0.00000000  1
  H  H12  1  0.09430000  0.57720000  0.29490000  1
  H  H13  1  0.14430000  0.52880000  0.32060000  1
  H  H14  1  0.06230000  0.52710000  0.32790000  1
  H  H15  1  0.35470000  0.46520000  0.32410000  1
  H  H16  1  0.26870000  0.45540000  0.27460000  1
  H  H17  1  0.12610000  0.39760000  0.35810000  1
  H  H18  1  0.21210000  0.40740000  0.40770000  1
  H  H19  1  0.22400000  0.31910000  0.27100000  1
  H  H20  1  0.16900000  0.26410000  0.25450000  1
  H  H21  1  0.21430000  0.30950000  0.22450000  1
  H  H22  1  0.90570000  0.42280000  0.29490000  1
  H  H23  1  0.85570000  0.47120000  0.32060000  1
  H  H24  1  0.93770000  0.47290000  0.32790000  1
  H  H25  1  0.64530000  0.53480000  0.32410000  1
  H  H26  1  0.73130000  0.54460000  0.27460000  1
  H  H27  1  0.87390000  0.60240000  0.35810000  1
  H  H28  1  0.78790000  0.59260000  0.40770000  1
  H  H29  1  0.77600000  0.68090000  0.27100000  1
  H  H30  1  0.83100000  0.73590000  0.25450000  1
  H  H31  1  0.78570000  0.69050000  0.22450000  1
  H  H32  1  0.42280000  0.09430000  0.29490000  1
  H  H33  1  0.47120000  0.14430000  0.32060000  1
  H  H34  1  0.47290000  0.06230000  0.32790000  1
  H  H35  1  0.53480000  0.35470000  0.32410000  1
  H  H36  1  0.54460000  0.26870000  0.27460000  1
  H  H37  1  0.60240000  0.12610000  0.35810000  1
  H  H38  1  0.59260000  0.21210000  0.40770000  1
  H  H39  1  0.68090000  0.22400000  0.27100000  1
  H  H40  1  0.73590000  0.16900000  0.25450000  1
  H  H41  1  0.69050000  0.21430000  0.22450000  1
  H  H42  1  0.57720000  0.90570000  0.29490000  1
  H  H43  1  0.52880000  0.85570000  0.32060000  1
  H  H44  1  0.52710000  0.93770000  0.32790000  1
  H  H45  1  0.46520000  0.64530000  0.32410000  1
  H  H46  1  0.45540000  0.73130000  0.27460000  1
  H  H47  1  0.39760000  0.87390000  0.35810000  1
  H  H48  1  0.40740000  0.78790000  0.40770000  1
  H  H49  1  0.31910000  0.77600000  0.27100000  1
  H  H50  1  0.26410000  0.83100000  0.25450000  1
  H  H51  1  0.30950000  0.78570000  0.22450000  1
  H  H52  1  0.40570000  0.07720000  0.20510000  1
  H  H53  1  0.35570000  0.02880000  0.17940000  1
  H  H54  1  0.43770000  0.02710000  0.17210000  1
  H  H55  1  0.14530000  0.96520000  0.17590000  1
  H  H56  1  0.23130000  0.95540000  0.22540000  1
  H  H57  1  0.37390000  0.89760000  0.14190000  1
  H  H58  1  0.28790000  0.90740000  0.09230000  1
  H  H59  1  0.59430000  0.92280000  0.20510000  1
  H  H60  1  0.64430000  0.97120000  0.17940000  1
  H  H61  1  0.56230000  0.97290000  0.17210000  1
  H  H62  1  0.85470000  0.03480000  0.17590000  1
  H  H63  1  0.76870000  0.04460000  0.22540000  1
  H  H64  1  0.62610000  0.10240000  0.14190000  1
  H  H65  1  0.71210000  0.09260000  0.09230000  1
  H  H66  1  0.07720000  0.59430000  0.20510000  1
  H  H67  1  0.02880000  0.64430000  0.17940000  1
  H  H68  1  0.02710000  0.56230000  0.17210000  1
  H  H69  1  0.96520000  0.85470000  0.17590000  1
  H  H70  1  0.95540000  0.76870000  0.22540000  1
  H  H71  1  0.89760000  0.62610000  0.14190000  1
  H  H72  1  0.90740000  0.71210000  0.09230000  1
  H  H73  1  0.92280000  0.40570000  0.20510000  1
  H  H74  1  0.97120000  0.35570000  0.17940000  1
  H  H75  1  0.97290000  0.43770000  0.17210000  1
  H  H76  1  0.03480000  0.14530000  0.17590000  1
  H  H77  1  0.04460000  0.23130000  0.22540000  1
  H  H78  1  0.10240000  0.37390000  0.14190000  1
  H  H79  1  0.09260000  0.28790000  0.09230000  1
  H  H80  1  0.90570000  0.42280000  0.70510000  1
  H  H81  1  0.85570000  0.47120000  0.67940000  1
  H  H82  1  0.93770000  0.47290000  0.67210000  1
  H  H83  1  0.64530000  0.53480000  0.67590000  1
  H  H84  1  0.73130000  0.54460000  0.72540000  1
  H  H85  1  0.87390000  0.60240000  0.64190000  1
  H  H86  1  0.78790000  0.59260000  0.59230000  1
  H  H87  1  0.09430000  0.57720000  0.70510000  1
  H  H88  1  0.14430000  0.52880000  0.67940000  1
  H  H89  1  0.06230000  0.52710000  0.67210000  1
  H  H90  1  0.35470000  0.46520000  0.67590000  1
  H  H91  1  0.26870000  0.45540000  0.72540000  1
  H  H92  1  0.12610000  0.39760000  0.64190000  1
  H  H93  1  0.21210000  0.40740000  0.59230000  1
  H  H94  1  0.22400000  0.31910000  0.72900000  1
  H  H95  1  0.16900000  0.26410000  0.74550000  1
  H  H96  1  0.21430000  0.30950000  0.77550000  1
  H  H97  1  0.57720000  0.90570000  0.70510000  1
  H  H98  1  0.52880000  0.85570000  0.67940000  1
  H  H99  1  0.52710000  0.93770000  0.67210000  1
  H  H100  1  0.46520000  0.64530000  0.67590000  1
  H  H101  1  0.45540000  0.73130000  0.72540000  1
  H  H102  1  0.39760000  0.87390000  0.64190000  1
  H  H103  1  0.40740000  0.78790000  0.59230000  1
  H  H104  1  0.42280000  0.09430000  0.70510000  1
  H  H105  1  0.47120000  0.14430000  0.67940000  1
  H  H106  1  0.47290000  0.06230000  0.67210000  1
  H  H107  1  0.53480000  0.35470000  0.67590000  1
  H  H108  1  0.54460000  0.26870000  0.72540000  1
  H  H109  1  0.60240000  0.12610000  0.64190000  1
  H  H110  1  0.59260000  0.21210000  0.59230000  1
  H  H111  1  0.59430000  0.92280000  0.79490000  1
  H  H112  1  0.64430000  0.97120000  0.82060000  1
  H  H113  1  0.56230000  0.97290000  0.82790000  1
  H  H114  1  0.85470000  0.03480000  0.82410000  1
  H  H115  1  0.76870000  0.04460000  0.77460000  1
  H  H116  1  0.62610000  0.10240000  0.85810000  1
  H  H117  1  0.71210000  0.09260000  0.90770000  1
  H  H118  1  0.72400000  0.18090000  0.77100000  1
  H  H119  1  0.66900000  0.23590000  0.75450000  1
  H  H120  1  0.71430000  0.19050000  0.72450000  1
  H  H121  1  0.40570000  0.07720000  0.79490000  1
  H  H122  1  0.35570000  0.02880000  0.82060000  1
  H  H123  1  0.43770000  0.02710000  0.82790000  1
  H  H124  1  0.14530000  0.96520000  0.82410000  1
  H  H125  1  0.23130000  0.95540000  0.77460000  1
  H  H126  1  0.37390000  0.89760000  0.85810000  1
  H  H127  1  0.28790000  0.90740000  0.90770000  1
  H  H128  1  0.27600000  0.81910000  0.77100000  1
  H  H129  1  0.33100000  0.76410000  0.75450000  1
  H  H130  1  0.28570000  0.80950000  0.72450000  1
  H  H131  1  0.92280000  0.40570000  0.79490000  1
  H  H132  1  0.97120000  0.35570000  0.82060000  1
  H  H133  1  0.97290000  0.43770000  0.82790000  1
  H  H134  1  0.03480000  0.14530000  0.82410000  1
  H  H135  1  0.04460000  0.23130000  0.77460000  1
  H  H136  1  0.10240000  0.37390000  0.85810000  1
  H  H137  1  0.09260000  0.28790000  0.90770000  1
  H  H138  1  0.07720000  0.59430000  0.79490000  1
  H  H139  1  0.02880000  0.64430000  0.82060000  1
  H  H140  1  0.02710000  0.56230000  0.82790000  1
  H  H141  1  0.96520000  0.85470000  0.82410000  1
  H  H142  1  0.95540000  0.76870000  0.77460000  1
  H  H143  1  0.89760000  0.62610000  0.85810000  1
  H  H144  1  0.90740000  0.71210000  0.90770000  1
  H  H145  1  0.81910000  0.72400000  0.77100000  1
  H  H146  1  0.76410000  0.66900000  0.75450000  1
  H  H147  1  0.80950000  0.71430000  0.72450000  1
  C  C148  1  0.34650000  0.44290000  0.40300000  1
  C  C149  1  0.09140000  0.47330000  0.27690000  1
  C  C150  1  0.13660000  0.42130000  0.27830000  1
  C  C151  1  0.09870000  0.53200000  0.30790000  1
  C  C152  1  0.30890000  0.45163000  0.33095000  1
  C  C153  1  0.25740000  0.44575000  0.30126000  1
  C  C154  1  0.18890000  0.42552000  0.31143000  1
  C  C155  1  0.17190000  0.41116000  0.35129000  1
  C  C156  1  0.22340000  0.41704000  0.38099000  1
  C  C157  1  0.29190000  0.43727000  0.37081000  1
  C  C158  1  0.65350000  0.55710000  0.40300000  1
  C  C159  1  0.90860000  0.52670000  0.27690000  1
  C  C160  1  0.86340000  0.57870000  0.27830000  1
  C  C161  1  0.90130000  0.46800000  0.30790000  1
  C  C162  1  0.69110000  0.54837000  0.33095000  1
  C  C163  1  0.74260000  0.55425000  0.30126000  1
  C  C164  1  0.81110000  0.57448000  0.31143000  1
  C  C165  1  0.82810000  0.58884000  0.35129000  1
  C  C166  1  0.77660000  0.58296000  0.38099000  1
  C  C167  1  0.70810000  0.56273000  0.37081000  1
  C  C168  1  0.55710000  0.34650000  0.40300000  1
  C  C169  1  0.52670000  0.09140000  0.27690000  1
  C  C170  1  0.57870000  0.13660000  0.27830000  1
  C  C171  1  0.46800000  0.09870000  0.30790000  1
  C  C172  1  0.54837000  0.30890000  0.33095000  1
  C  C173  1  0.55425000  0.25740000  0.30126000  1
  C  C174  1  0.57448000  0.18890000  0.31143000  1
  C  C175  1  0.58884000  0.17190000  0.35129000  1
  C  C176  1  0.58296000  0.22340000  0.38099000  1
  C  C177  1  0.56273000  0.29190000  0.37081000  1
  C  C178  1  0.44290000  0.65350000  0.40300000  1
  C  C179  1  0.47330000  0.90860000  0.27690000  1
  C  C180  1  0.42130000  0.86340000  0.27830000  1
  C  C181  1  0.53200000  0.90130000  0.30790000  1
  C  C182  1  0.45163000  0.69110000  0.33095000  1
  C  C183  1  0.44575000  0.74260000  0.30126000  1
  C  C184  1  0.42552000  0.81110000  0.31143000  1
  C  C185  1  0.41116000  0.82810000  0.35129000  1
  C  C186  1  0.41704000  0.77660000  0.38099000  1
  C  C187  1  0.43727000  0.70810000  0.37081000  1
  C  C188  1  0.15350000  0.94290000  0.09700000  1
  C  C189  1  0.40860000  0.97330000  0.22310000  1
  C  C190  1  0.36340000  0.92130000  0.22170000  1
  C  C191  1  0.40130000  0.03200000  0.19210000  1
  C  C192  1  0.19110000  0.95163000  0.16905000  1
  C  C193  1  0.24260000  0.94575000  0.19874000  1
  C  C194  1  0.31110000  0.92552000  0.18857000  1
  C  C195  1  0.32810000  0.91116000  0.14871000  1
  C  C196  1  0.27660000  0.91704000  0.11901000  1
  C  C197  1  0.20810000  0.93727000  0.12919000  1
  C  C198  1  0.84650000  0.05710000  0.09700000  1
  C  C199  1  0.59140000  0.02670000  0.22310000  1
  C  C200  1  0.63660000  0.07870000  0.22170000  1
  C  C201  1  0.59870000  0.96800000  0.19210000  1
  C  C202  1  0.80890000  0.04837000  0.16905000  1
  C  C203  1  0.75740000  0.05425000  0.19874000  1
  C  C204  1  0.68890000  0.07448000  0.18857000  1
  C  C205  1  0.67190000  0.08884000  0.14871000  1
  C  C206  1  0.72340000  0.08296000  0.11901000  1
  C  C207  1  0.79190000  0.06273000  0.12919000  1
  C  C208  1  0.94290000  0.84650000  0.09700000  1
  C  C209  1  0.97330000  0.59140000  0.22310000  1
  C  C210  1  0.92130000  0.63660000  0.22170000  1
  C  C211  1  0.03200000  0.59870000  0.19210000  1
  C  C212  1  0.95163000  0.80890000  0.16905000  1
  C  C213  1  0.94575000  0.75740000  0.19874000  1
  C  C214  1  0.92552000  0.68890000  0.18857000  1
  C  C215  1  0.91116000  0.67190000  0.14871000  1
  C  C216  1  0.91704000  0.72340000  0.11901000  1
  C  C217  1  0.93727000  0.79190000  0.12919000  1
  C  C218  1  0.05710000  0.15350000  0.09700000  1
  C  C219  1  0.02670000  0.40860000  0.22310000  1
  C  C220  1  0.07870000  0.36340000  0.22170000  1
  C  C221  1  0.96800000  0.40130000  0.19210000  1
  C  C222  1  0.04837000  0.19110000  0.16905000  1
  C  C223  1  0.05425000  0.24260000  0.19874000  1
  C  C224  1  0.07448000  0.31110000  0.18857000  1
  C  C225  1  0.08884000  0.32810000  0.14871000  1
  C  C226  1  0.08296000  0.27660000  0.11901000  1
  C  C227  1  0.06273000  0.20810000  0.12919000  1
  C  C228  1  0.65350000  0.55710000  0.59700000  1
  C  C229  1  0.90860000  0.52670000  0.72310000  1
  C  C230  1  0.86340000  0.57870000  0.72170000  1
  C  C231  1  0.90130000  0.46800000  0.69210000  1
  C  C232  1  0.69110000  0.54837000  0.66905000  1
  C  C233  1  0.74260000  0.55425000  0.69874000  1
  C  C234  1  0.81110000  0.57448000  0.68857000  1
  C  C235  1  0.82810000  0.58884000  0.64871000  1
  C  C236  1  0.77660000  0.58296000  0.61901000  1
  C  C237  1  0.70810000  0.56273000  0.62919000  1
  C  C238  1  0.34650000  0.44290000  0.59700000  1
  C  C239  1  0.09140000  0.47330000  0.72310000  1
  C  C240  1  0.13660000  0.42130000  0.72170000  1
  C  C241  1  0.09870000  0.53200000  0.69210000  1
  C  C242  1  0.30890000  0.45163000  0.66905000  1
  C  C243  1  0.25740000  0.44575000  0.69874000  1
  C  C244  1  0.18890000  0.42552000  0.68857000  1
  C  C245  1  0.17190000  0.41116000  0.64871000  1
  C  C246  1  0.22340000  0.41704000  0.61901000  1
  C  C247  1  0.29190000  0.43727000  0.62919000  1
  C  C248  1  0.44290000  0.65350000  0.59700000  1
  C  C249  1  0.47330000  0.90860000  0.72310000  1
  C  C250  1  0.42130000  0.86340000  0.72170000  1
  C  C251  1  0.53200000  0.90130000  0.69210000  1
  C  C252  1  0.45163000  0.69110000  0.66905000  1
  C  C253  1  0.44575000  0.74260000  0.69874000  1
  C  C254  1  0.42552000  0.81110000  0.68857000  1
  C  C255  1  0.41116000  0.82810000  0.64871000  1
  C  C256  1  0.41704000  0.77660000  0.61901000  1
  C  C257  1  0.43727000  0.70810000  0.62919000  1
  C  C258  1  0.55710000  0.34650000  0.59700000  1
  C  C259  1  0.52670000  0.09140000  0.72310000  1
  C  C260  1  0.57870000  0.13660000  0.72170000  1
  C  C261  1  0.46800000  0.09870000  0.69210000  1
  C  C262  1  0.54837000  0.30890000  0.66905000  1
  C  C263  1  0.55425000  0.25740000  0.69874000  1
  C  C264  1  0.57448000  0.18890000  0.68857000  1
  C  C265  1  0.58884000  0.17190000  0.64871000  1
  C  C266  1  0.58296000  0.22340000  0.61901000  1
  C  C267  1  0.56273000  0.29190000  0.62919000  1
  C  C268  1  0.84650000  0.05710000  0.90300000  1
  C  C269  1  0.59140000  0.02670000  0.77690000  1
  C  C270  1  0.63660000  0.07870000  0.77830000  1
  C  C271  1  0.59870000  0.96800000  0.80790000  1
  C  C272  1  0.80890000  0.04837000  0.83095000  1
  C  C273  1  0.75740000  0.05425000  0.80126000  1
  C  C274  1  0.68890000  0.07448000  0.81143000  1
  C  C275  1  0.67190000  0.08884000  0.85129000  1
  C  C276  1  0.72340000  0.08296000  0.88099000  1
  C  C277  1  0.79190000  0.06273000  0.87081000  1
  C  C278  1  0.15350000  0.94290000  0.90300000  1
  C  C279  1  0.40860000  0.97330000  0.77690000  1
  C  C280  1  0.36340000  0.92130000  0.77830000  1
  C  C281  1  0.40130000  0.03200000  0.80790000  1
  C  C282  1  0.19110000  0.95163000  0.83095000  1
  C  C283  1  0.24260000  0.94575000  0.80126000  1
  C  C284  1  0.31110000  0.92552000  0.81143000  1
  C  C285  1  0.32810000  0.91116000  0.85129000  1
  C  C286  1  0.27660000  0.91704000  0.88099000  1
  C  C287  1  0.20810000  0.93727000  0.87081000  1
  C  C288  1  0.05710000  0.15350000  0.90300000  1
  C  C289  1  0.02670000  0.40860000  0.77690000  1
  C  C290  1  0.07870000  0.36340000  0.77830000  1
  C  C291  1  0.96800000  0.40130000  0.80790000  1
  C  C292  1  0.04837000  0.19110000  0.83095000  1
  C  C293  1  0.05425000  0.24260000  0.80126000  1
  C  C294  1  0.07448000  0.31110000  0.81143000  1
  C  C295  1  0.08884000  0.32810000  0.85129000  1
  C  C296  1  0.08296000  0.27660000  0.88099000  1
  C  C297  1  0.06273000  0.20810000  0.87081000  1
  C  C298  1  0.94290000  0.84650000  0.90300000  1
  C  C299  1  0.97330000  0.59140000  0.77690000  1
  C  C300  1  0.92130000  0.63660000  0.77830000  1
  C  C301  1  0.03200000  0.59870000  0.80790000  1
  C  C302  1  0.95163000  0.80890000  0.83095000  1
  C  C303  1  0.94575000  0.75740000  0.80126000  1
  C  C304  1  0.92552000  0.68890000  0.81143000  1
  C  C305  1  0.91116000  0.67190000  0.85129000  1
  C  C306  1  0.91704000  0.72340000  0.88099000  1
  C  C307  1  0.93727000  0.79190000  0.87081000  1
  C  C308  1  0.02824000  0.47176000  0.25000000  1
  C  C309  1  0.13370000  0.36630000  0.25000000  1
  C  C310  1  0.19040000  0.30960000  0.25000000  1
  C  C311  1  0.97176000  0.52824000  0.25000000  1
  C  C312  1  0.86630000  0.63370000  0.25000000  1
  C  C313  1  0.80960000  0.69040000  0.25000000  1
  C  C314  1  0.52824000  0.02824000  0.25000000  1
  C  C315  1  0.63370000  0.13370000  0.25000000  1
  C  C316  1  0.69040000  0.19040000  0.25000000  1
  C  C317  1  0.47176000  0.97176000  0.25000000  1
  C  C318  1  0.36630000  0.86630000  0.25000000  1
  C  C319  1  0.30960000  0.80960000  0.25000000  1
  C  C320  1  0.97176000  0.52824000  0.75000000  1
  C  C321  1  0.86630000  0.63370000  0.75000000  1
  C  C322  1  0.80960000  0.69040000  0.75000000  1
  C  C323  1  0.02824000  0.47176000  0.75000000  1
  C  C324  1  0.13370000  0.36630000  0.75000000  1
  C  C325  1  0.19040000  0.30960000  0.75000000  1
  C  C326  1  0.47176000  0.97176000  0.75000000  1
  C  C327  1  0.36630000  0.86630000  0.75000000  1
  C  C328  1  0.30960000  0.80960000  0.75000000  1
  C  C329  1  0.52824000  0.02824000  0.75000000  1
  C  C330  1  0.63370000  0.13370000  0.75000000  1
  C  C331  1  0.69040000  0.19040000  0.75000000  1
  O  O332  1  0.40830000  0.46610000  0.39284000  1
  O  O333  1  0.53740000  0.58580000  0.46407000  1
  O  O334  1  0.32640000  0.43420000  0.43972000  1
  O  O335  1  0.59170000  0.53390000  0.39284000  1
  O  O336  1  0.46260000  0.41420000  0.46407000  1
  O  O337  1  0.67360000  0.56580000  0.43972000  1
  O  O338  1  0.53390000  0.40830000  0.39284000  1
  O  O339  1  0.41420000  0.53740000  0.46407000  1
  O  O340  1  0.56580000  0.32640000  0.43972000  1
  O  O341  1  0.46610000  0.59170000  0.39284000  1
  O  O342  1  0.58580000  0.46260000  0.46407000  1
  O  O343  1  0.43420000  0.67360000  0.43972000  1
  O  O344  1  0.09170000  0.96610000  0.10716000  1
  O  O345  1  0.96260000  0.08580000  0.03593000  1
  O  O346  1  0.17360000  0.93420000  0.06028000  1
  O  O347  1  0.90830000  0.03390000  0.10716000  1
  O  O348  1  0.03740000  0.91420000  0.03593000  1
  O  O349  1  0.82640000  0.06580000  0.06028000  1
  O  O350  1  0.96610000  0.90830000  0.10716000  1
  O  O351  1  0.08580000  0.03740000  0.03593000  1
  O  O352  1  0.93420000  0.82640000  0.06028000  1
  O  O353  1  0.03390000  0.09170000  0.10716000  1
  O  O354  1  0.91420000  0.96260000  0.03593000  1
  O  O355  1  0.06580000  0.17360000  0.06028000  1
  O  O356  1  0.59170000  0.53390000  0.60716000  1
  O  O357  1  0.46260000  0.41420000  0.53593000  1
  O  O358  1  0.67360000  0.56580000  0.56028000  1
  O  O359  1  0.40830000  0.46610000  0.60716000  1
  O  O360  1  0.53740000  0.58580000  0.53593000  1
  O  O361  1  0.32640000  0.43420000  0.56028000  1
  O  O362  1  0.46610000  0.59170000  0.60716000  1
  O  O363  1  0.58580000  0.46260000  0.53593000  1
  O  O364  1  0.43420000  0.67360000  0.56028000  1
  O  O365  1  0.53390000  0.40830000  0.60716000  1
  O  O366  1  0.41420000  0.53740000  0.53593000  1
  O  O367  1  0.56580000  0.32640000  0.56028000  1
  O  O368  1  0.90830000  0.03390000  0.89284000  1
  O  O369  1  0.03740000  0.91420000  0.96407000  1
  O  O370  1  0.82640000  0.06580000  0.93972000  1
  O  O371  1  0.09170000  0.96610000  0.89284000  1
  O  O372  1  0.96260000  0.08580000  0.96407000  1
  O  O373  1  0.17360000  0.93420000  0.93972000  1
  O  O374  1  0.03390000  0.09170000  0.89284000  1
  O  O375  1  0.91420000  0.96260000  0.96407000  1
  O  O376  1  0.06580000  0.17360000  0.93972000  1
  O  O377  1  0.96610000  0.90830000  0.89284000  1
  O  O378  1  0.08580000  0.03740000  0.96407000  1
  O  O379  1  0.93420000  0.82640000  0.93972000  1
