# generated using pymatgen
data_Zr3H34(C23O6)2
_symmetry_space_group_name_H-M   'P 1'
_cell_length_a   19.03750000
_cell_length_b   19.03750000
_cell_length_c   33.13300000
_cell_angle_alpha   90.00000000
_cell_angle_beta   90.00000000
_cell_angle_gamma   90.00000000
_symmetry_Int_Tables_number   1
_chemical_formula_structural   Zr3H34(C23O6)2
_chemical_formula_sum   'Zr12 H136 C184 O48'
_cell_volume   12008.27411828
_cell_formula_units_Z   4
loop_
 _symmetry_equiv_pos_site_id
 _symmetry_equiv_pos_as_xyz
  1  'x, y, z'
loop_
 _atom_site_type_symbol
 _atom_site_label
 _atom_site_symmetry_multiplicity
 _atom_site_fract_x
 _atom_site_fract_y
 _atom_site_fract_z
 _atom_site_occupancy
  Zr  Zr0  1  0.12399000  0.04429000  0.00000000  1
  Zr  Zr1  1  0.87601000  0.95571000  0.00000000  1
  Zr  Zr2  1  0.95571000  0.12399000  0.00000000  1
  Zr  Zr3  1  0.04429000  0.87601000  0.00000000  1
  Zr  Zr4  1  0.37601000  0.54429000  0.50000000  1
  Zr  Zr5  1  0.62399000  0.45571000  0.50000000  1
  Zr  Zr6  1  0.54429000  0.62399000  0.50000000  1
  Zr  Zr7  1  0.45571000  0.37601000  0.50000000  1
  Zr  Zr8  1  0.00000000  0.00000000  0.07366000  1
  Zr  Zr9  1  0.50000000  0.50000000  0.42634000  1
  Zr  Zr10  1  0.00000000  0.00000000  0.92634000  1
  Zr  Zr11  1  0.50000000  0.50000000  0.57366000  1
  H  H12  1  0.96330000  0.14590000  0.17650000  1
  H  H13  1  0.95560000  0.22650000  0.23010000  1
  H  H14  1  0.03270000  0.45120000  0.17630000  1
  H  H15  1  0.02580000  0.36920000  0.17590000  1
  H  H16  1  0.07830000  0.40550000  0.20570000  1
  H  H17  1  0.90740000  0.28760000  0.08670000  1
  H  H18  1  0.90310000  0.36080000  0.14370000  1
  H  H19  1  0.03670000  0.85410000  0.17650000  1
  H  H20  1  0.04440000  0.77350000  0.23010000  1
  H  H21  1  0.96730000  0.54880000  0.17630000  1
  H  H22  1  0.97420000  0.63080000  0.17590000  1
  H  H23  1  0.92170000  0.59450000  0.20570000  1
  H  H24  1  0.09260000  0.71240000  0.08670000  1
  H  H25  1  0.09690000  0.63920000  0.14370000  1
  H  H26  1  0.22140000  0.67880000  0.27120000  1
  H  H27  1  0.21200000  0.68820000  0.22450000  1
  H  H28  1  0.16690000  0.73330000  0.25440000  1
  H  H29  1  0.85410000  0.96330000  0.17650000  1
  H  H30  1  0.77350000  0.95560000  0.23010000  1
  H  H31  1  0.54880000  0.03270000  0.17630000  1
  H  H32  1  0.63080000  0.02580000  0.17590000  1
  H  H33  1  0.59450000  0.07830000  0.20570000  1
  H  H34  1  0.71240000  0.90740000  0.08670000  1
  H  H35  1  0.63920000  0.90310000  0.14370000  1
  H  H36  1  0.14590000  0.03670000  0.17650000  1
  H  H37  1  0.22650000  0.04440000  0.23010000  1
  H  H38  1  0.45120000  0.96730000  0.17630000  1
  H  H39  1  0.36920000  0.97420000  0.17590000  1
  H  H40  1  0.40550000  0.92170000  0.20570000  1
  H  H41  1  0.28760000  0.09260000  0.08670000  1
  H  H42  1  0.36080000  0.09690000  0.14370000  1
  H  H43  1  0.32120000  0.22140000  0.27120000  1
  H  H44  1  0.31180000  0.21200000  0.22450000  1
  H  H45  1  0.26670000  0.16690000  0.25440000  1
  H  H46  1  0.53670000  0.64590000  0.32350000  1
  H  H47  1  0.54440000  0.72650000  0.26990000  1
  H  H48  1  0.46730000  0.95120000  0.32370000  1
  H  H49  1  0.47420000  0.86920000  0.32410000  1
  H  H50  1  0.42170000  0.90550000  0.29430000  1
  H  H51  1  0.59260000  0.78760000  0.41330000  1
  H  H52  1  0.59690000  0.86080000  0.35630000  1
  H  H53  1  0.72140000  0.82120000  0.22880000  1
  H  H54  1  0.71200000  0.81180000  0.27550000  1
  H  H55  1  0.66690000  0.76670000  0.24560000  1
  H  H56  1  0.46330000  0.35410000  0.32350000  1
  H  H57  1  0.45560000  0.27350000  0.26990000  1
  H  H58  1  0.53270000  0.04880000  0.32370000  1
  H  H59  1  0.52580000  0.13080000  0.32410000  1
  H  H60  1  0.57830000  0.09450000  0.29430000  1
  H  H61  1  0.40740000  0.21240000  0.41330000  1
  H  H62  1  0.40310000  0.13920000  0.35630000  1
  H  H63  1  0.64590000  0.46330000  0.32350000  1
  H  H64  1  0.72650000  0.45560000  0.26990000  1
  H  H65  1  0.95120000  0.53270000  0.32370000  1
  H  H66  1  0.86920000  0.52580000  0.32410000  1
  H  H67  1  0.90550000  0.57830000  0.29430000  1
  H  H68  1  0.78760000  0.40740000  0.41330000  1
  H  H69  1  0.86080000  0.40310000  0.35630000  1
  H  H70  1  0.82120000  0.27860000  0.22880000  1
  H  H71  1  0.81180000  0.28800000  0.27550000  1
  H  H72  1  0.76670000  0.33310000  0.24560000  1
  H  H73  1  0.35410000  0.53670000  0.32350000  1
  H  H74  1  0.27350000  0.54440000  0.26990000  1
  H  H75  1  0.04880000  0.46730000  0.32370000  1
  H  H76  1  0.13080000  0.47420000  0.32410000  1
  H  H77  1  0.09450000  0.42170000  0.29430000  1
  H  H78  1  0.21240000  0.59260000  0.41330000  1
  H  H79  1  0.13920000  0.59690000  0.35630000  1
  H  H80  1  0.03670000  0.85410000  0.82350000  1
  H  H81  1  0.04440000  0.77350000  0.76990000  1
  H  H82  1  0.96730000  0.54880000  0.82370000  1
  H  H83  1  0.97420000  0.63080000  0.82410000  1
  H  H84  1  0.92170000  0.59450000  0.79430000  1
  H  H85  1  0.09260000  0.71240000  0.91330000  1
  H  H86  1  0.09690000  0.63920000  0.85630000  1
  H  H87  1  0.22140000  0.67880000  0.72880000  1
  H  H88  1  0.21200000  0.68820000  0.77550000  1
  H  H89  1  0.16690000  0.73330000  0.74560000  1
  H  H90  1  0.96330000  0.14590000  0.82350000  1
  H  H91  1  0.95560000  0.22650000  0.76990000  1
  H  H92  1  0.03270000  0.45120000  0.82370000  1
  H  H93  1  0.02580000  0.36920000  0.82410000  1
  H  H94  1  0.07830000  0.40550000  0.79430000  1
  H  H95  1  0.90740000  0.28760000  0.91330000  1
  H  H96  1  0.90310000  0.36080000  0.85630000  1
  H  H97  1  0.14590000  0.03670000  0.82350000  1
  H  H98  1  0.22650000  0.04440000  0.76990000  1
  H  H99  1  0.45120000  0.96730000  0.82370000  1
  H  H100  1  0.36920000  0.97420000  0.82410000  1
  H  H101  1  0.40550000  0.92170000  0.79430000  1
  H  H102  1  0.28760000  0.09260000  0.91330000  1
  H  H103  1  0.36080000  0.09690000  0.85630000  1
  H  H104  1  0.32120000  0.22140000  0.72880000  1
  H  H105  1  0.31180000  0.21200000  0.77550000  1
  H  H106  1  0.26670000  0.16690000  0.74560000  1
  H  H107  1  0.85410000  0.96330000  0.82350000  1
  H  H108  1  0.77350000  0.95560000  0.76990000  1
  H  H109  1  0.54880000  0.03270000  0.82370000  1
  H  H110  1  0.63080000  0.02580000  0.82410000  1
  H  H111  1  0.59450000  0.07830000  0.79430000  1
  H  H112  1  0.71240000  0.90740000  0.91330000  1
  H  H113  1  0.63920000  0.90310000  0.85630000  1
  H  H114  1  0.67880000  0.77860000  0.72880000  1
  H  H115  1  0.68820000  0.78800000  0.77550000  1
  H  H116  1  0.73330000  0.83310000  0.74560000  1
  H  H117  1  0.46330000  0.35410000  0.67650000  1
  H  H118  1  0.45560000  0.27350000  0.73010000  1
  H  H119  1  0.53270000  0.04880000  0.67630000  1
  H  H120  1  0.52580000  0.13080000  0.67590000  1
  H  H121  1  0.57830000  0.09450000  0.70570000  1
  H  H122  1  0.40740000  0.21240000  0.58670000  1
  H  H123  1  0.40310000  0.13920000  0.64370000  1
  H  H124  1  0.53670000  0.64590000  0.67650000  1
  H  H125  1  0.54440000  0.72650000  0.73010000  1
  H  H126  1  0.46730000  0.95120000  0.67630000  1
  H  H127  1  0.47420000  0.86920000  0.67590000  1
  H  H128  1  0.42170000  0.90550000  0.70570000  1
  H  H129  1  0.59260000  0.78760000  0.58670000  1
  H  H130  1  0.59690000  0.86080000  0.64370000  1
  H  H131  1  0.35410000  0.53670000  0.67650000  1
  H  H132  1  0.27350000  0.54440000  0.73010000  1
  H  H133  1  0.04880000  0.46730000  0.67630000  1
  H  H134  1  0.13080000  0.47420000  0.67590000  1
  H  H135  1  0.09450000  0.42170000  0.70570000  1
  H  H136  1  0.21240000  0.59260000  0.58670000  1
  H  H137  1  0.13920000  0.59690000  0.64370000  1
  H  H138  1  0.64590000  0.46330000  0.67650000  1
  H  H139  1  0.72650000  0.45560000  0.73010000  1
  H  H140  1  0.95120000  0.53270000  0.67630000  1
  H  H141  1  0.86920000  0.52580000  0.67590000  1
  H  H142  1  0.90550000  0.57830000  0.70570000  1
  H  H143  1  0.78760000  0.40740000  0.58670000  1
  H  H144  1  0.86080000  0.40310000  0.64370000  1
  H  H145  1  0.82120000  0.27860000  0.77120000  1
  H  H146  1  0.81180000  0.28800000  0.72450000  1
  H  H147  1  0.76670000  0.33310000  0.75440000  1
  C  C148  1  0.97610000  0.41390000  0.22420000  1
  C  C149  1  0.95040000  0.19210000  0.17120000  1
  C  C150  1  0.94230000  0.15170000  0.10130000  1
  C  C151  1  0.94610000  0.23860000  0.20350000  1
  C  C152  1  0.92190000  0.36480000  0.22160000  1
  C  C153  1  0.03350000  0.40960000  0.19260000  1
  C  C154  1  0.93610000  0.21140000  0.13090000  1
  C  C155  1  0.92570000  0.30650000  0.19080000  1
  C  C156  1  0.91650000  0.27520000  0.11340000  1
  C  C157  1  0.91500000  0.31440000  0.14930000  1
  C  C158  1  0.02390000  0.58610000  0.22420000  1
  C  C159  1  0.04960000  0.80790000  0.17120000  1
  C  C160  1  0.05770000  0.84830000  0.10130000  1
  C  C161  1  0.05390000  0.76140000  0.20350000  1
  C  C162  1  0.07810000  0.63520000  0.22160000  1
  C  C163  1  0.96650000  0.59040000  0.19260000  1
  C  C164  1  0.06390000  0.78860000  0.13090000  1
  C  C165  1  0.07430000  0.69350000  0.19080000  1
  C  C166  1  0.08350000  0.72480000  0.11340000  1
  C  C167  1  0.08500000  0.68560000  0.14930000  1
  C  C168  1  0.58610000  0.97610000  0.22420000  1
  C  C169  1  0.80790000  0.95040000  0.17120000  1
  C  C170  1  0.84830000  0.94230000  0.10130000  1
  C  C171  1  0.76140000  0.94610000  0.20350000  1
  C  C172  1  0.63520000  0.92190000  0.22160000  1
  C  C173  1  0.59040000  0.03350000  0.19260000  1
  C  C174  1  0.78860000  0.93610000  0.13090000  1
  C  C175  1  0.69350000  0.92570000  0.19080000  1
  C  C176  1  0.72480000  0.91650000  0.11340000  1
  C  C177  1  0.68560000  0.91500000  0.14930000  1
  C  C178  1  0.41390000  0.02390000  0.22420000  1
  C  C179  1  0.19210000  0.04960000  0.17120000  1
  C  C180  1  0.15170000  0.05770000  0.10130000  1
  C  C181  1  0.23860000  0.05390000  0.20350000  1
  C  C182  1  0.36480000  0.07810000  0.22160000  1
  C  C183  1  0.40960000  0.96650000  0.19260000  1
  C  C184  1  0.21140000  0.06390000  0.13090000  1
  C  C185  1  0.30650000  0.07430000  0.19080000  1
  C  C186  1  0.27520000  0.08350000  0.11340000  1
  C  C187  1  0.31440000  0.08500000  0.14930000  1
  C  C188  1  0.52390000  0.91390000  0.27580000  1
  C  C189  1  0.54960000  0.69210000  0.32880000  1
  C  C190  1  0.55770000  0.65170000  0.39870000  1
  C  C191  1  0.55390000  0.73860000  0.29650000  1
  C  C192  1  0.57810000  0.86480000  0.27840000  1
  C  C193  1  0.46650000  0.90960000  0.30740000  1
  C  C194  1  0.56390000  0.71140000  0.36910000  1
  C  C195  1  0.57430000  0.80650000  0.30920000  1
  C  C196  1  0.58350000  0.77520000  0.38660000  1
  C  C197  1  0.58500000  0.81440000  0.35070000  1
  C  C198  1  0.47610000  0.08610000  0.27580000  1
  C  C199  1  0.45040000  0.30790000  0.32880000  1
  C  C200  1  0.44230000  0.34830000  0.39870000  1
  C  C201  1  0.44610000  0.26140000  0.29650000  1
  C  C202  1  0.42190000  0.13520000  0.27840000  1
  C  C203  1  0.53350000  0.09040000  0.30740000  1
  C  C204  1  0.43610000  0.28860000  0.36910000  1
  C  C205  1  0.42570000  0.19350000  0.30920000  1
  C  C206  1  0.41650000  0.22480000  0.38660000  1
  C  C207  1  0.41500000  0.18560000  0.35070000  1
  C  C208  1  0.91390000  0.47610000  0.27580000  1
  C  C209  1  0.69210000  0.45040000  0.32880000  1
  C  C210  1  0.65170000  0.44230000  0.39870000  1
  C  C211  1  0.73860000  0.44610000  0.29650000  1
  C  C212  1  0.86480000  0.42190000  0.27840000  1
  C  C213  1  0.90960000  0.53350000  0.30740000  1
  C  C214  1  0.71140000  0.43610000  0.36910000  1
  C  C215  1  0.80650000  0.42570000  0.30920000  1
  C  C216  1  0.77520000  0.41650000  0.38660000  1
  C  C217  1  0.81440000  0.41500000  0.35070000  1
  C  C218  1  0.08610000  0.52390000  0.27580000  1
  C  C219  1  0.30790000  0.54960000  0.32880000  1
  C  C220  1  0.34830000  0.55770000  0.39870000  1
  C  C221  1  0.26140000  0.55390000  0.29650000  1
  C  C222  1  0.13520000  0.57810000  0.27840000  1
  C  C223  1  0.09040000  0.46650000  0.30740000  1
  C  C224  1  0.28860000  0.56390000  0.36910000  1
  C  C225  1  0.19350000  0.57430000  0.30920000  1
  C  C226  1  0.22480000  0.58350000  0.38660000  1
  C  C227  1  0.18560000  0.58500000  0.35070000  1
  C  C228  1  0.02390000  0.58610000  0.77580000  1
  C  C229  1  0.04960000  0.80790000  0.82880000  1
  C  C230  1  0.05770000  0.84830000  0.89870000  1
  C  C231  1  0.05390000  0.76140000  0.79650000  1
  C  C232  1  0.07810000  0.63520000  0.77840000  1
  C  C233  1  0.96650000  0.59040000  0.80740000  1
  C  C234  1  0.06390000  0.78860000  0.86910000  1
  C  C235  1  0.07430000  0.69350000  0.80920000  1
  C  C236  1  0.08350000  0.72480000  0.88660000  1
  C  C237  1  0.08500000  0.68560000  0.85070000  1
  C  C238  1  0.97610000  0.41390000  0.77580000  1
  C  C239  1  0.95040000  0.19210000  0.82880000  1
  C  C240  1  0.94230000  0.15170000  0.89870000  1
  C  C241  1  0.94610000  0.23860000  0.79650000  1
  C  C242  1  0.92190000  0.36480000  0.77840000  1
  C  C243  1  0.03350000  0.40960000  0.80740000  1
  C  C244  1  0.93610000  0.21140000  0.86910000  1
  C  C245  1  0.92570000  0.30650000  0.80920000  1
  C  C246  1  0.91650000  0.27520000  0.88660000  1
  C  C247  1  0.91500000  0.31440000  0.85070000  1
  C  C248  1  0.41390000  0.02390000  0.77580000  1
  C  C249  1  0.19210000  0.04960000  0.82880000  1
  C  C250  1  0.15170000  0.05770000  0.89870000  1
  C  C251  1  0.23860000  0.05390000  0.79650000  1
  C  C252  1  0.36480000  0.07810000  0.77840000  1
  C  C253  1  0.40960000  0.96650000  0.80740000  1
  C  C254  1  0.21140000  0.06390000  0.86910000  1
  C  C255  1  0.30650000  0.07430000  0.80920000  1
  C  C256  1  0.27520000  0.08350000  0.88660000  1
  C  C257  1  0.31440000  0.08500000  0.85070000  1
  C  C258  1  0.58610000  0.97610000  0.77580000  1
  C  C259  1  0.80790000  0.95040000  0.82880000  1
  C  C260  1  0.84830000  0.94230000  0.89870000  1
  C  C261  1  0.76140000  0.94610000  0.79650000  1
  C  C262  1  0.63520000  0.92190000  0.77840000  1
  C  C263  1  0.59040000  0.03350000  0.80740000  1
  C  C264  1  0.78860000  0.93610000  0.86910000  1
  C  C265  1  0.69350000  0.92570000  0.80920000  1
  C  C266  1  0.72480000  0.91650000  0.88660000  1
  C  C267  1  0.68560000  0.91500000  0.85070000  1
  C  C268  1  0.47610000  0.08610000  0.72420000  1
  C  C269  1  0.45040000  0.30790000  0.67120000  1
  C  C270  1  0.44230000  0.34830000  0.60130000  1
  C  C271  1  0.44610000  0.26140000  0.70350000  1
  C  C272  1  0.42190000  0.13520000  0.72160000  1
  C  C273  1  0.53350000  0.09040000  0.69260000  1
  C  C274  1  0.43610000  0.28860000  0.63090000  1
  C  C275  1  0.42570000  0.19350000  0.69080000  1
  C  C276  1  0.41650000  0.22480000  0.61340000  1
  C  C277  1  0.41500000  0.18560000  0.64930000  1
  C  C278  1  0.52390000  0.91390000  0.72420000  1
  C  C279  1  0.54960000  0.69210000  0.67120000  1
  C  C280  1  0.55770000  0.65170000  0.60130000  1
  C  C281  1  0.55390000  0.73860000  0.70350000  1
  C  C282  1  0.57810000  0.86480000  0.72160000  1
  C  C283  1  0.46650000  0.90960000  0.69260000  1
  C  C284  1  0.56390000  0.71140000  0.63090000  1
  C  C285  1  0.57430000  0.80650000  0.69080000  1
  C  C286  1  0.58350000  0.77520000  0.61340000  1
  C  C287  1  0.58500000  0.81440000  0.64930000  1
  C  C288  1  0.08610000  0.52390000  0.72420000  1
  C  C289  1  0.30790000  0.54960000  0.67120000  1
  C  C290  1  0.34830000  0.55770000  0.60130000  1
  C  C291  1  0.26140000  0.55390000  0.70350000  1
  C  C292  1  0.13520000  0.57810000  0.72160000  1
  C  C293  1  0.09040000  0.46650000  0.69260000  1
  C  C294  1  0.28860000  0.56390000  0.63090000  1
  C  C295  1  0.19350000  0.57430000  0.69080000  1
  C  C296  1  0.22480000  0.58350000  0.61340000  1
  C  C297  1  0.18560000  0.58500000  0.64930000  1
  C  C298  1  0.91390000  0.47610000  0.72420000  1
  C  C299  1  0.69210000  0.45040000  0.67120000  1
  C  C300  1  0.65170000  0.44230000  0.60130000  1
  C  C301  1  0.73860000  0.44610000  0.70350000  1
  C  C302  1  0.86480000  0.42190000  0.72160000  1
  C  C303  1  0.90960000  0.53350000  0.69260000  1
  C  C304  1  0.71140000  0.43610000  0.63090000  1
  C  C305  1  0.80650000  0.42570000  0.69080000  1
  C  C306  1  0.77520000  0.41650000  0.61340000  1
  C  C307  1  0.81440000  0.41500000  0.64930000  1
  C  C308  1  0.97204000  0.47204000  0.25000000  1
  C  C309  1  0.86770000  0.36770000  0.25000000  1
  C  C310  1  0.81180000  0.31180000  0.25000000  1
  C  C311  1  0.02796000  0.52796000  0.25000000  1
  C  C312  1  0.13230000  0.63230000  0.25000000  1
  C  C313  1  0.18820000  0.68820000  0.25000000  1
  C  C314  1  0.52796000  0.97204000  0.25000000  1
  C  C315  1  0.63230000  0.86770000  0.25000000  1
  C  C316  1  0.68820000  0.81180000  0.25000000  1
  C  C317  1  0.47204000  0.02796000  0.25000000  1
  C  C318  1  0.36770000  0.13230000  0.25000000  1
  C  C319  1  0.31180000  0.18820000  0.25000000  1
  C  C320  1  0.02796000  0.52796000  0.75000000  1
  C  C321  1  0.13230000  0.63230000  0.75000000  1
  C  C322  1  0.18820000  0.68820000  0.75000000  1
  C  C323  1  0.97204000  0.47204000  0.75000000  1
  C  C324  1  0.86770000  0.36770000  0.75000000  1
  C  C325  1  0.81180000  0.31180000  0.75000000  1
  C  C326  1  0.47204000  0.02796000  0.75000000  1
  C  C327  1  0.36770000  0.13230000  0.75000000  1
  C  C328  1  0.31180000  0.18820000  0.75000000  1
  C  C329  1  0.52796000  0.97204000  0.75000000  1
  C  C330  1  0.63230000  0.86770000  0.75000000  1
  C  C331  1  0.68820000  0.81180000  0.75000000  1
  O  O332  1  0.97200000  0.09300000  0.10910000  1
  O  O333  1  0.93930000  0.17550000  0.06090000  1
  O  O334  1  0.03840000  0.08290000  0.03600000  1
  O  O335  1  0.02800000  0.90700000  0.10910000  1
  O  O336  1  0.06070000  0.82450000  0.06090000  1
  O  O337  1  0.96160000  0.91710000  0.03600000  1
  O  O338  1  0.90700000  0.97200000  0.10910000  1
  O  O339  1  0.82450000  0.93930000  0.06090000  1
  O  O340  1  0.91710000  0.03840000  0.03600000  1
  O  O341  1  0.09300000  0.02800000  0.10910000  1
  O  O342  1  0.17550000  0.06070000  0.06090000  1
  O  O343  1  0.08290000  0.96160000  0.03600000  1
  O  O344  1  0.52800000  0.59300000  0.39090000  1
  O  O345  1  0.56070000  0.67550000  0.43910000  1
  O  O346  1  0.46160000  0.58290000  0.46400000  1
  O  O347  1  0.47200000  0.40700000  0.39090000  1
  O  O348  1  0.43930000  0.32450000  0.43910000  1
  O  O349  1  0.53840000  0.41710000  0.46400000  1
  O  O350  1  0.59300000  0.47200000  0.39090000  1
  O  O351  1  0.67550000  0.43930000  0.43910000  1
  O  O352  1  0.58290000  0.53840000  0.46400000  1
  O  O353  1  0.40700000  0.52800000  0.39090000  1
  O  O354  1  0.32450000  0.56070000  0.43910000  1
  O  O355  1  0.41710000  0.46160000  0.46400000  1
  O  O356  1  0.02800000  0.90700000  0.89090000  1
  O  O357  1  0.06070000  0.82450000  0.93910000  1
  O  O358  1  0.96160000  0.91710000  0.96400000  1
  O  O359  1  0.97200000  0.09300000  0.89090000  1
  O  O360  1  0.93930000  0.17550000  0.93910000  1
  O  O361  1  0.03840000  0.08290000  0.96400000  1
  O  O362  1  0.09300000  0.02800000  0.89090000  1
  O  O363  1  0.17550000  0.06070000  0.93910000  1
  O  O364  1  0.08290000  0.96160000  0.96400000  1
  O  O365  1  0.90700000  0.97200000  0.89090000  1
  O  O366  1  0.82450000  0.93930000  0.93910000  1
  O  O367  1  0.91710000  0.03840000  0.96400000  1
  O  O368  1  0.47200000  0.40700000  0.60910000  1
  O  O369  1  0.43930000  0.32450000  0.56090000  1
  O  O370  1  0.53840000  0.41710000  0.53600000  1
  O  O371  1  0.52800000  0.59300000  0.60910000  1
  O  O372  1  0.56070000  0.67550000  0.56090000  1
  O  O373  1  0.46160000  0.58290000  0.53600000  1
  O  O374  1  0.40700000  0.52800000  0.60910000  1
  O  O375  1  0.32450000  0.56070000  0.56090000  1
  O  O376  1  0.41710000  0.46160000  0.53600000  1
  O  O377  1  0.59300000  0.47200000  0.60910000  1
  O  O378  1  0.67550000  0.43930000  0.56090000  1
  O  O379  1  0.58290000  0.53840000  0.53600000  1
