# generated using pymatgen
data_Zr3H21C40NO12
_symmetry_space_group_name_H-M   'P 1'
_cell_length_a   17.72300000
_cell_length_b   25.42504009
_cell_length_c   25.42504009
_cell_angle_alpha   80.05648907
_cell_angle_beta   69.60230398
_cell_angle_gamma   69.60230398
_symmetry_Int_Tables_number   1
_chemical_formula_structural   Zr3H21C40NO12
_chemical_formula_sum   'Zr12 H84 C160 N4 O48'
_cell_volume   10047.89844452
_cell_formula_units_Z   4
loop_
 _symmetry_equiv_pos_site_id
 _symmetry_equiv_pos_as_xyz
  1  'x, y, z'
loop_
 _atom_site_type_symbol
 _atom_site_label
 _atom_site_symmetry_multiplicity
 _atom_site_fract_x
 _atom_site_fract_y
 _atom_site_fract_z
 _atom_site_occupancy
  C  C0  1  0.52770000  0.74670000  0.43930000  1
  C  C1  1  0.52580000  0.75720000  0.49640000  1
  C  C2  1  0.58270000  0.72280000  0.52140000  1
  C  C3  1  0.57640000  0.73250000  0.57350000  1
  C  C4  1  0.51190000  0.78530000  0.59970000  1
  C  C5  1  0.46340000  0.81940000  0.57140000  1
  C  C6  1  0.46050000  0.80500000  0.52180000  1
  C  C7  1  0.51550000  0.80280000  0.65220000  1
  C  C8  1  0.51980000  0.77060000  0.70200000  1
  C  C9  1  0.51420000  0.79240000  0.75020000  1
  C  C10  1  0.51180000  0.85040000  0.74760000  1
  C  C11  1  0.49490000  0.88360000  0.70180000  1
  C  C12  1  0.50720000  0.85880000  0.65500000  1
  C  C13  1  0.49030000  0.94570000  0.70170000  1
  C  C14  1  0.43600000  0.97490000  0.74570000  1
  C  C15  1  0.43180000  0.03200000  0.74380000  1
  C  C16  1  0.47680000  0.05590000  0.70270000  1
  C  C17  1  0.53130000  0.02570000  0.65390000  1
  C  C18  1  0.53440000  0.96930000  0.65370000  1
  C  C19  1  0.47550000  0.11630000  0.69690000  1
  C  C20  1  0.28630000  0.43930000  0.74670000  1
  C  C21  1  0.22060000  0.49640000  0.75720000  1
  C  C22  1  0.17310000  0.52140000  0.72280000  1
  C  C23  1  0.11760000  0.57350000  0.73250000  1
  C  C24  1  0.10310000  0.59970000  0.78530000  1
  C  C25  1  0.14580000  0.57140000  0.81940000  1
  C  C26  1  0.21270000  0.52180000  0.80500000  1
  C  C27  1  0.02950000  0.65220000  0.80280000  1
  C  C28  1  0.00760000  0.70200000  0.77060000  1
  C  C29  1  0.94320000  0.75020000  0.79240000  1
  C  C30  1  0.89020000  0.74760000  0.85040000  1
  C  C31  1  0.91970000  0.70180000  0.88360000  1
  C  C32  1  0.97900000  0.65500000  0.85880000  1
  C  C33  1  0.86230000  0.70170000  0.94570000  1
  C  C34  1  0.84340000  0.74570000  0.97490000  1
  C  C35  1  0.79240000  0.74380000  0.03200000  1
  C  C36  1  0.76460000  0.70270000  0.05590000  1
  C  C37  1  0.78910000  0.65390000  0.02570000  1
  C  C38  1  0.84260000  0.65370000  0.96930000  1
  C  C39  1  0.71130000  0.69690000  0.11630000  1
  C  C40  1  0.71370000  0.25330000  0.56070000  1
  C  C41  1  0.77940000  0.24280000  0.50360000  1
  C  C42  1  0.82690000  0.27720000  0.47860000  1
  C  C43  1  0.88240000  0.26750000  0.42650000  1
  C  C44  1  0.89690000  0.21470000  0.40030000  1
  C  C45  1  0.85420000  0.18060000  0.42860000  1
  C  C46  1  0.78730000  0.19500000  0.47820000  1
  C  C47  1  0.97050000  0.19720000  0.34780000  1
  C  C48  1  0.99240000  0.22940000  0.29800000  1
  C  C49  1  0.05680000  0.20760000  0.24980000  1
  C  C50  1  0.10980000  0.14960000  0.25240000  1
  C  C51  1  0.08030000  0.11640000  0.29820000  1
  C  C52  1  0.02100000  0.14120000  0.34500000  1
  C  C53  1  0.13770000  0.05430000  0.29830000  1
  C  C54  1  0.15660000  0.02510000  0.25430000  1
  C  C55  1  0.20760000  0.96800000  0.25620000  1
  C  C56  1  0.23540000  0.94410000  0.29730000  1
  C  C57  1  0.21090000  0.97430000  0.34610000  1
  C  C58  1  0.15740000  0.03070000  0.34630000  1
  C  C59  1  0.28870000  0.88370000  0.30310000  1
  C  C60  1  0.47230000  0.56070000  0.25330000  1
  C  C61  1  0.47420000  0.50360000  0.24280000  1
  C  C62  1  0.41730000  0.47860000  0.27720000  1
  C  C63  1  0.42360000  0.42650000  0.26750000  1
  C  C64  1  0.48810000  0.40030000  0.21470000  1
  C  C65  1  0.53660000  0.42860000  0.18060000  1
  C  C66  1  0.53950000  0.47820000  0.19500000  1
  C  C67  1  0.48450000  0.34780000  0.19720000  1
  C  C68  1  0.48020000  0.29800000  0.22940000  1
  C  C69  1  0.48580000  0.24980000  0.20760000  1
  C  C70  1  0.48820000  0.25240000  0.14960000  1
  C  C71  1  0.50510000  0.29820000  0.11640000  1
  C  C72  1  0.49280000  0.34500000  0.14120000  1
  C  C73  1  0.50970000  0.29830000  0.05430000  1
  C  C74  1  0.56400000  0.25430000  0.02510000  1
  C  C75  1  0.56820000  0.25620000  0.96800000  1
  C  C76  1  0.52320000  0.29730000  0.94410000  1
  C  C77  1  0.46870000  0.34610000  0.97430000  1
  C  C78  1  0.46560000  0.34630000  0.03070000  1
  C  C79  1  0.52450000  0.30310000  0.88370000  1
  C  C80  1  0.47230000  0.25330000  0.56070000  1
  C  C81  1  0.47420000  0.24280000  0.50360000  1
  C  C82  1  0.41730000  0.27720000  0.47860000  1
  C  C83  1  0.42360000  0.26750000  0.42650000  1
  C  C84  1  0.48810000  0.21470000  0.40030000  1
  C  C85  1  0.53660000  0.18060000  0.42860000  1
  C  C86  1  0.53950000  0.19500000  0.47820000  1
  C  C87  1  0.48450000  0.19720000  0.34780000  1
  C  C88  1  0.48020000  0.22940000  0.29800000  1
  C  C89  1  0.48580000  0.20760000  0.24980000  1
  C  C90  1  0.48820000  0.14960000  0.25240000  1
  C  C91  1  0.50510000  0.11640000  0.29820000  1
  C  C92  1  0.49280000  0.14120000  0.34500000  1
  C  C93  1  0.50970000  0.05430000  0.29830000  1
  C  C94  1  0.56400000  0.02510000  0.25430000  1
  C  C95  1  0.56820000  0.96800000  0.25620000  1
  C  C96  1  0.52320000  0.94410000  0.29730000  1
  C  C97  1  0.46870000  0.97430000  0.34610000  1
  C  C98  1  0.46560000  0.03070000  0.34630000  1
  C  C99  1  0.52450000  0.88370000  0.30310000  1
  C  C100  1  0.71370000  0.56070000  0.25330000  1
  C  C101  1  0.77940000  0.50360000  0.24280000  1
  C  C102  1  0.82690000  0.47860000  0.27720000  1
  C  C103  1  0.88240000  0.42650000  0.26750000  1
  C  C104  1  0.89690000  0.40030000  0.21470000  1
  C  C105  1  0.85420000  0.42860000  0.18060000  1
  C  C106  1  0.78730000  0.47820000  0.19500000  1
  C  C107  1  0.97050000  0.34780000  0.19720000  1
  C  C108  1  0.99240000  0.29800000  0.22940000  1
  C  C109  1  0.05680000  0.24980000  0.20760000  1
  C  C110  1  0.10980000  0.25240000  0.14960000  1
  C  C111  1  0.08030000  0.29820000  0.11640000  1
  C  C112  1  0.02100000  0.34500000  0.14120000  1
  C  C113  1  0.13770000  0.29830000  0.05430000  1
  C  C114  1  0.15660000  0.25430000  0.02510000  1
  C  C115  1  0.20760000  0.25620000  0.96800000  1
  C  C116  1  0.23540000  0.29730000  0.94410000  1
  C  C117  1  0.21090000  0.34610000  0.97430000  1
  C  C118  1  0.15740000  0.34630000  0.03070000  1
  C  C119  1  0.28870000  0.30310000  0.88370000  1
  C  C120  1  0.28630000  0.74670000  0.43930000  1
  C  C121  1  0.22060000  0.75720000  0.49640000  1
  C  C122  1  0.17310000  0.72280000  0.52140000  1
  C  C123  1  0.11760000  0.73250000  0.57350000  1
  C  C124  1  0.10310000  0.78530000  0.59970000  1
  C  C125  1  0.14580000  0.81940000  0.57140000  1
  C  C126  1  0.21270000  0.80500000  0.52180000  1
  C  C127  1  0.02950000  0.80280000  0.65220000  1
  C  C128  1  0.00760000  0.77060000  0.70200000  1
  C  C129  1  0.94320000  0.79240000  0.75020000  1
  C  C130  1  0.89020000  0.85040000  0.74760000  1
  C  C131  1  0.91970000  0.88360000  0.70180000  1
  C  C132  1  0.97900000  0.85880000  0.65500000  1
  C  C133  1  0.86230000  0.94570000  0.70170000  1
  C  C134  1  0.84340000  0.97490000  0.74570000  1
  C  C135  1  0.79240000  0.03200000  0.74380000  1
  C  C136  1  0.76460000  0.05590000  0.70270000  1
  C  C137  1  0.78910000  0.02570000  0.65390000  1
  C  C138  1  0.84260000  0.96930000  0.65370000  1
  C  C139  1  0.71130000  0.11630000  0.69690000  1
  C  C140  1  0.52770000  0.43930000  0.74670000  1
  C  C141  1  0.52580000  0.49640000  0.75720000  1
  C  C142  1  0.58270000  0.52140000  0.72280000  1
  C  C143  1  0.57640000  0.57350000  0.73250000  1
  C  C144  1  0.51190000  0.59970000  0.78530000  1
  C  C145  1  0.46340000  0.57140000  0.81940000  1
  C  C146  1  0.46050000  0.52180000  0.80500000  1
  C  C147  1  0.51550000  0.65220000  0.80280000  1
  C  C148  1  0.51980000  0.70200000  0.77060000  1
  C  C149  1  0.51420000  0.75020000  0.79240000  1
  C  C150  1  0.51180000  0.74760000  0.85040000  1
  C  C151  1  0.49490000  0.70180000  0.88360000  1
  C  C152  1  0.50720000  0.65500000  0.85880000  1
  C  C153  1  0.49030000  0.70170000  0.94570000  1
  C  C154  1  0.43600000  0.74570000  0.97490000  1
  C  C155  1  0.43180000  0.74380000  0.03200000  1
  C  C156  1  0.47680000  0.70270000  0.05590000  1
  C  C157  1  0.53130000  0.65390000  0.02570000  1
  C  C158  1  0.53440000  0.65370000  0.96930000  1
  C  C159  1  0.47550000  0.69690000  0.11630000  1
  H  H160  1  0.62690000  0.69190000  0.50230000  1
  H  H161  1  0.61190000  0.70650000  0.59330000  1
  H  H162  1  0.42880000  0.85530000  0.58510000  1
  H  H163  1  0.41700000  0.82610000  0.50590000  1
  H  H164  1  0.52120000  0.86470000  0.77610000  1
  H  H165  1  0.51060000  0.88170000  0.62110000  1
  H  H166  1  0.40170000  0.95840000  0.77680000  1
  H  H167  1  0.39350000  0.05360000  0.77480000  1
  H  H168  1  0.56450000  0.04280000  0.62260000  1
  H  H169  1  0.56620000  0.94840000  0.62120000  1
  H  H170  1  0.51010000  0.69140000  0.69140000  1
  H  H171  1  0.17890000  0.50230000  0.69190000  1
  H  H172  1  0.08830000  0.59330000  0.70650000  1
  H  H173  1  0.13080000  0.58510000  0.85530000  1
  H  H174  1  0.25100000  0.50590000  0.82610000  1
  H  H175  1  0.83800000  0.77610000  0.86470000  1
  H  H176  1  0.98660000  0.62110000  0.88170000  1
  H  H177  1  0.86310000  0.77680000  0.95840000  1
  H  H178  1  0.77810000  0.77480000  0.05360000  1
  H  H179  1  0.77010000  0.62260000  0.04280000  1
  H  H180  1  0.86420000  0.62120000  0.94840000  1
  H  H181  1  0.10710000  0.69140000  0.69140000  1
  H  H182  1  0.82110000  0.30810000  0.49770000  1
  H  H183  1  0.91170000  0.29350000  0.40670000  1
  H  H184  1  0.86920000  0.14470000  0.41490000  1
  H  H185  1  0.74900000  0.17390000  0.49410000  1
  H  H186  1  0.16200000  0.13530000  0.22390000  1
  H  H187  1  0.01340000  0.11830000  0.37890000  1
  H  H188  1  0.13690000  0.04160000  0.22320000  1
  H  H189  1  0.22190000  0.94640000  0.22520000  1
  H  H190  1  0.22990000  0.95720000  0.37740000  1
  H  H191  1  0.13580000  0.05160000  0.37880000  1
  H  H192  1  0.89290000  0.30860000  0.30860000  1
  H  H193  1  0.37310000  0.49770000  0.30810000  1
  H  H194  1  0.38810000  0.40670000  0.29350000  1
  H  H195  1  0.57120000  0.41490000  0.14470000  1
  H  H196  1  0.58300000  0.49410000  0.17390000  1
  H  H197  1  0.47880000  0.22390000  0.13530000  1
  H  H198  1  0.48940000  0.37890000  0.11830000  1
  H  H199  1  0.59830000  0.22320000  0.04160000  1
  H  H200  1  0.60650000  0.22520000  0.94640000  1
  H  H201  1  0.43550000  0.37740000  0.95720000  1
  H  H202  1  0.43380000  0.37880000  0.05160000  1
  H  H203  1  0.48990000  0.30860000  0.30860000  1
  H  H204  1  0.37310000  0.30810000  0.49770000  1
  H  H205  1  0.38810000  0.29350000  0.40670000  1
  H  H206  1  0.57120000  0.14470000  0.41490000  1
  H  H207  1  0.58300000  0.17390000  0.49410000  1
  H  H208  1  0.47880000  0.13530000  0.22390000  1
  H  H209  1  0.48940000  0.11830000  0.37890000  1
  H  H210  1  0.59830000  0.04160000  0.22320000  1
  H  H211  1  0.60650000  0.94640000  0.22520000  1
  H  H212  1  0.43550000  0.95720000  0.37740000  1
  H  H213  1  0.43380000  0.05160000  0.37880000  1
  H  H214  1  0.82110000  0.49770000  0.30810000  1
  H  H215  1  0.91170000  0.40670000  0.29350000  1
  H  H216  1  0.86920000  0.41490000  0.14470000  1
  H  H217  1  0.74900000  0.49410000  0.17390000  1
  H  H218  1  0.16200000  0.22390000  0.13530000  1
  H  H219  1  0.01340000  0.37890000  0.11830000  1
  H  H220  1  0.13690000  0.22320000  0.04160000  1
  H  H221  1  0.22190000  0.22520000  0.94640000  1
  H  H222  1  0.22990000  0.37740000  0.95720000  1
  H  H223  1  0.13580000  0.37880000  0.05160000  1
  H  H224  1  0.17890000  0.69190000  0.50230000  1
  H  H225  1  0.08830000  0.70650000  0.59330000  1
  H  H226  1  0.13080000  0.85530000  0.58510000  1
  H  H227  1  0.25100000  0.82610000  0.50590000  1
  H  H228  1  0.83800000  0.86470000  0.77610000  1
  H  H229  1  0.98660000  0.88170000  0.62110000  1
  H  H230  1  0.86310000  0.95840000  0.77680000  1
  H  H231  1  0.77810000  0.05360000  0.77480000  1
  H  H232  1  0.77010000  0.04280000  0.62260000  1
  H  H233  1  0.86420000  0.94840000  0.62120000  1
  H  H234  1  0.62690000  0.50230000  0.69190000  1
  H  H235  1  0.61190000  0.59330000  0.70650000  1
  H  H236  1  0.42880000  0.58510000  0.85530000  1
  H  H237  1  0.41700000  0.50590000  0.82610000  1
  H  H238  1  0.52120000  0.77610000  0.86470000  1
  H  H239  1  0.51060000  0.62110000  0.88170000  1
  H  H240  1  0.40170000  0.77680000  0.95840000  1
  H  H241  1  0.39350000  0.77480000  0.05360000  1
  H  H242  1  0.56450000  0.62260000  0.04280000  1
  H  H243  1  0.56620000  0.62120000  0.94840000  1
  N  N244  1  0.51480000  0.71290000  0.71290000  1
  N  N245  1  0.05940000  0.71290000  0.71290000  1
  N  N246  1  0.94060000  0.28710000  0.28710000  1
  N  N247  1  0.48520000  0.28710000  0.28710000  1
  O  O248  1  0.47820000  0.78390000  0.41930000  1
  O  O249  1  0.58270000  0.70260000  0.41500000  1
  O  O250  1  0.52910000  0.13580000  0.66100000  1
  O  O251  1  0.41260000  0.14440000  0.74100000  1
  O  O252  1  0.36030000  0.75610000  0.31370000  1
  O  O253  1  0.46650000  0.69910000  0.36790000  1
  O  O254  1  0.46790000  0.80640000  0.25780000  1
  O  O255  1  0.31860000  0.41930000  0.78390000  1
  O  O256  1  0.29970000  0.41500000  0.70260000  1
  O  O257  1  0.67410000  0.66100000  0.13580000  1
  O  O258  1  0.70200000  0.74100000  0.14440000  1
  O  O259  1  0.56990000  0.31370000  0.75610000  1
  O  O260  1  0.46650000  0.36790000  0.69910000  1
  O  O261  1  0.46790000  0.25780000  0.80640000  1
  O  O262  1  0.68140000  0.21610000  0.58070000  1
  O  O263  1  0.70030000  0.29740000  0.58500000  1
  O  O264  1  0.32590000  0.86420000  0.33900000  1
  O  O265  1  0.29800000  0.85560000  0.25900000  1
  O  O266  1  0.43010000  0.24390000  0.68630000  1
  O  O267  1  0.53350000  0.30090000  0.63210000  1
  O  O268  1  0.53210000  0.19360000  0.74220000  1
  O  O269  1  0.52180000  0.58070000  0.21610000  1
  O  O270  1  0.41730000  0.58500000  0.29740000  1
  O  O271  1  0.47090000  0.33900000  0.86420000  1
  O  O272  1  0.58740000  0.25900000  0.85560000  1
  O  O273  1  0.63970000  0.68630000  0.24390000  1
  O  O274  1  0.53350000  0.63210000  0.30090000  1
  O  O275  1  0.53210000  0.74220000  0.19360000  1
  O  O276  1  0.52180000  0.21610000  0.58070000  1
  O  O277  1  0.41730000  0.29740000  0.58500000  1
  O  O278  1  0.47090000  0.86420000  0.33900000  1
  O  O279  1  0.58740000  0.85560000  0.25900000  1
  O  O280  1  0.63970000  0.24390000  0.68630000  1
  O  O281  1  0.68140000  0.58070000  0.21610000  1
  O  O282  1  0.70030000  0.58500000  0.29740000  1
  O  O283  1  0.32590000  0.33900000  0.86420000  1
  O  O284  1  0.29800000  0.25900000  0.85560000  1
  O  O285  1  0.43010000  0.68630000  0.24390000  1
  O  O286  1  0.31860000  0.78390000  0.41930000  1
  O  O287  1  0.29970000  0.70260000  0.41500000  1
  O  O288  1  0.67410000  0.13580000  0.66100000  1
  O  O289  1  0.70200000  0.14440000  0.74100000  1
  O  O290  1  0.56990000  0.75610000  0.31370000  1
  O  O291  1  0.47820000  0.41930000  0.78390000  1
  O  O292  1  0.58270000  0.41500000  0.70260000  1
  O  O293  1  0.52910000  0.66100000  0.13580000  1
  O  O294  1  0.41260000  0.74100000  0.14440000  1
  O  O295  1  0.36030000  0.31370000  0.75610000  1
  Zr  Zr296  1  0.43000000  0.79215000  0.34785000  1
  Zr  Zr297  1  0.39933000  0.66690000  0.33310000  1
  Zr  Zr298  1  0.39977000  0.77584000  0.22416000  1
  Zr  Zr299  1  0.43000000  0.34785000  0.79215000  1
  Zr  Zr300  1  0.60067000  0.33310000  0.66690000  1
  Zr  Zr301  1  0.60023000  0.22416000  0.77584000  1
  Zr  Zr302  1  0.57000000  0.20785000  0.65215000  1
  Zr  Zr303  1  0.39933000  0.33310000  0.66690000  1
  Zr  Zr304  1  0.39977000  0.22416000  0.77584000  1
  Zr  Zr305  1  0.57000000  0.65215000  0.20785000  1
  Zr  Zr306  1  0.60067000  0.66690000  0.33310000  1
  Zr  Zr307  1  0.60023000  0.77584000  0.22416000  1
