# generated using pymatgen
data_Zr3H27C56NO12
_symmetry_space_group_name_H-M   'P 1'
_cell_length_a   24.62700000
_cell_length_b   29.80583726
_cell_length_c   29.80583726
_cell_angle_alpha   76.12883073
_cell_angle_beta   65.59878291
_cell_angle_gamma   65.59878291
_symmetry_Int_Tables_number   1
_chemical_formula_structural   Zr3H27C56NO12
_chemical_formula_sum   'Zr12 H108 C224 N4 O48'
_cell_volume   18081.29443173
_cell_formula_units_Z   4
loop_
 _symmetry_equiv_pos_site_id
 _symmetry_equiv_pos_as_xyz
  1  'x, y, z'
loop_
 _atom_site_type_symbol
 _atom_site_label
 _atom_site_symmetry_multiplicity
 _atom_site_fract_x
 _atom_site_fract_y
 _atom_site_fract_z
 _atom_site_occupancy
  C  C0  1  0.66996000  0.74166000  0.09582000  1
  C  C1  1  0.33399000  0.37726000  0.78256000  1
  C  C2  1  0.72628000  0.73333000  0.04891000  1
  C  C3  1  0.76055000  0.76326000  0.03084000  1
  C  C4  1  0.28400000  0.42800000  0.78260000  1
  C  C5  1  0.81324000  0.75500000  0.98632000  1
  C  C6  1  0.21242000  0.50428000  0.82108000  1
  C  C7  1  0.99498000  0.74839000  0.81045000  1
  C  C8  1  0.05464000  0.73205000  0.77347000  1
  C  C9  1  0.19880000  0.52440000  0.77840000  1
  C  C10  1  0.82815000  0.71295000  0.96135000  1
  C  C11  1  0.25755000  0.45442000  0.82328000  1
  C  C12  1  0.97941000  0.71719000  0.85179000  1
  C  C13  1  0.09792000  0.68438000  0.77398000  1
  C  C14  1  0.26794000  0.44996000  0.73936000  1
  C  C15  1  0.12940000  0.60100000  0.81860000  1
  C  C16  1  0.08306000  0.65429000  0.81439000  1
  C  C17  1  0.85061000  0.78519000  0.96759000  1
  C  C18  1  0.15696000  0.57414000  0.77634000  1
  C  C19  1  0.02520000  0.67129000  0.85511000  1
  C  C20  1  0.91728000  0.72972000  0.89892000  1
  C  C21  1  0.74264000  0.69416000  0.02256000  1
  C  C22  1  0.14010000  0.58040000  0.86180000  1
  C  C23  1  0.88360000  0.69850000  0.91450000  1
  C  C24  1  0.22470000  0.49740000  0.73880000  1
  C  C25  1  0.79309000  0.68341000  0.97881000  1
  C  C26  1  0.90340000  0.77230000  0.92530000  1
  C  C27  1  0.18610000  0.53150000  0.86170000  1
  C  C28  1  0.49256000  0.09582000  0.74166000  1
  C  C29  1  0.50619000  0.78256000  0.37726000  1
  C  C30  1  0.49148000  0.04891000  0.73333000  1
  C  C31  1  0.44535000  0.03084000  0.76326000  1
  C  C32  1  0.50540000  0.78260000  0.42800000  1
  C  C33  1  0.44544000  0.98632000  0.75500000  1
  C  C34  1  0.46222000  0.82108000  0.50428000  1
  C  C35  1  0.44618000  0.81045000  0.74839000  1
  C  C36  1  0.43984000  0.77347000  0.73205000  1
  C  C37  1  0.49840000  0.77840000  0.52440000  1
  C  C38  1  0.49755000  0.96135000  0.71295000  1
  C  C39  1  0.46475000  0.82328000  0.45442000  1
  C  C40  1  0.45161000  0.85179000  0.71719000  1
  C  C41  1  0.44372000  0.77398000  0.68438000  1
  C  C42  1  0.54274000  0.73936000  0.44996000  1
  C  C43  1  0.45100000  0.81860000  0.60100000  1
  C  C44  1  0.44826000  0.81439000  0.65429000  1
  C  C45  1  0.39661000  0.96759000  0.78519000  1
  C  C46  1  0.49256000  0.77634000  0.57414000  1
  C  C47  1  0.44840000  0.85511000  0.67129000  1
  C  C48  1  0.45408000  0.89892000  0.72972000  1
  C  C49  1  0.54064000  0.02256000  0.69416000  1
  C  C50  1  0.41770000  0.86180000  0.58040000  1
  C  C51  1  0.50340000  0.91450000  0.69850000  1
  C  C52  1  0.53910000  0.73880000  0.49740000  1
  C  C53  1  0.54469000  0.97881000  0.68341000  1
  C  C54  1  0.39900000  0.92530000  0.77230000  1
  C  C55  1  0.42070000  0.86170000  0.53150000  1
  C  C56  1  0.50744000  0.25834000  0.90418000  1
  C  C57  1  0.49381000  0.62274000  0.21744000  1
  C  C58  1  0.50852000  0.26667000  0.95109000  1
  C  C59  1  0.55465000  0.23674000  0.96916000  1
  C  C60  1  0.49460000  0.57200000  0.21740000  1
  C  C61  1  0.55456000  0.24500000  0.01368000  1
  C  C62  1  0.53778000  0.49572000  0.17892000  1
  C  C63  1  0.55382000  0.25161000  0.18955000  1
  C  C64  1  0.56016000  0.26795000  0.22653000  1
  C  C65  1  0.50160000  0.47560000  0.22160000  1
  C  C66  1  0.50245000  0.28705000  0.03865000  1
  C  C67  1  0.53525000  0.54558000  0.17672000  1
  C  C68  1  0.54839000  0.28281000  0.14821000  1
  C  C69  1  0.55628000  0.31562000  0.22602000  1
  C  C70  1  0.45726000  0.55004000  0.26064000  1
  C  C71  1  0.54900000  0.39900000  0.18140000  1
  C  C72  1  0.55174000  0.34571000  0.18561000  1
  C  C73  1  0.60339000  0.21481000  0.03241000  1
  C  C74  1  0.50744000  0.42586000  0.22366000  1
  C  C75  1  0.55160000  0.32871000  0.14489000  1
  C  C76  1  0.54592000  0.27028000  0.10108000  1
  C  C77  1  0.45936000  0.30584000  0.97744000  1
  C  C78  1  0.58230000  0.41960000  0.13820000  1
  C  C79  1  0.49660000  0.30150000  0.08550000  1
  C  C80  1  0.46090000  0.50260000  0.26120000  1
  C  C81  1  0.45531000  0.31659000  0.02119000  1
  C  C82  1  0.60100000  0.22770000  0.07470000  1
  C  C83  1  0.57930000  0.46850000  0.13830000  1
  C  C84  1  0.33004000  0.90418000  0.25834000  1
  C  C85  1  0.66601000  0.21744000  0.62274000  1
  C  C86  1  0.27372000  0.95109000  0.26667000  1
  C  C87  1  0.23945000  0.96916000  0.23674000  1
  C  C88  1  0.71600000  0.21740000  0.57200000  1
  C  C89  1  0.18676000  0.01368000  0.24500000  1
  C  C90  1  0.78758000  0.17892000  0.49572000  1
  C  C91  1  0.00502000  0.18955000  0.25161000  1
  C  C92  1  0.94536000  0.22653000  0.26795000  1
  C  C93  1  0.80120000  0.22160000  0.47560000  1
  C  C94  1  0.17185000  0.03865000  0.28705000  1
  C  C95  1  0.74245000  0.17672000  0.54558000  1
  C  C96  1  0.02059000  0.14821000  0.28281000  1
  C  C97  1  0.90208000  0.22602000  0.31562000  1
  C  C98  1  0.73206000  0.26064000  0.55004000  1
  C  C99  1  0.87060000  0.18140000  0.39900000  1
  C  C100  1  0.91694000  0.18561000  0.34571000  1
  C  C101  1  0.14939000  0.03241000  0.21481000  1
  C  C102  1  0.84304000  0.22366000  0.42586000  1
  C  C103  1  0.97480000  0.14489000  0.32871000  1
  C  C104  1  0.08272000  0.10108000  0.27028000  1
  C  C105  1  0.25736000  0.97744000  0.30584000  1
  C  C106  1  0.85990000  0.13820000  0.41960000  1
  C  C107  1  0.11640000  0.08550000  0.30150000  1
  C  C108  1  0.77530000  0.26120000  0.50260000  1
  C  C109  1  0.20691000  0.02119000  0.31659000  1
  C  C110  1  0.09660000  0.07470000  0.22770000  1
  C  C111  1  0.81390000  0.13830000  0.46850000  1
  C  C112  1  0.33004000  0.25834000  0.90418000  1
  C  C113  1  0.66601000  0.62274000  0.21744000  1
  C  C114  1  0.27372000  0.26667000  0.95109000  1
  C  C115  1  0.23945000  0.23674000  0.96916000  1
  C  C116  1  0.71600000  0.57200000  0.21740000  1
  C  C117  1  0.18676000  0.24500000  0.01368000  1
  C  C118  1  0.78758000  0.49572000  0.17892000  1
  C  C119  1  0.00502000  0.25161000  0.18955000  1
  C  C120  1  0.94536000  0.26795000  0.22653000  1
  C  C121  1  0.80120000  0.47560000  0.22160000  1
  C  C122  1  0.17185000  0.28705000  0.03865000  1
  C  C123  1  0.74245000  0.54558000  0.17672000  1
  C  C124  1  0.02059000  0.28281000  0.14821000  1
  C  C125  1  0.90208000  0.31562000  0.22602000  1
  C  C126  1  0.73206000  0.55004000  0.26064000  1
  C  C127  1  0.87060000  0.39900000  0.18140000  1
  C  C128  1  0.91694000  0.34571000  0.18561000  1
  C  C129  1  0.14939000  0.21481000  0.03241000  1
  C  C130  1  0.84304000  0.42586000  0.22366000  1
  C  C131  1  0.97480000  0.32871000  0.14489000  1
  C  C132  1  0.08272000  0.27028000  0.10108000  1
  C  C133  1  0.25736000  0.30584000  0.97744000  1
  C  C134  1  0.85990000  0.41960000  0.13820000  1
  C  C135  1  0.11640000  0.30150000  0.08550000  1
  C  C136  1  0.77530000  0.50260000  0.26120000  1
  C  C137  1  0.20691000  0.31659000  0.02119000  1
  C  C138  1  0.09660000  0.22770000  0.07470000  1
  C  C139  1  0.81390000  0.46850000  0.13830000  1
  C  C140  1  0.50744000  0.90418000  0.25834000  1
  C  C141  1  0.49381000  0.21744000  0.62274000  1
  C  C142  1  0.50852000  0.95109000  0.26667000  1
  C  C143  1  0.55465000  0.96916000  0.23674000  1
  C  C144  1  0.49460000  0.21740000  0.57200000  1
  C  C145  1  0.55456000  0.01368000  0.24500000  1
  C  C146  1  0.53778000  0.17892000  0.49572000  1
  C  C147  1  0.55382000  0.18955000  0.25161000  1
  C  C148  1  0.56016000  0.22653000  0.26795000  1
  C  C149  1  0.50160000  0.22160000  0.47560000  1
  C  C150  1  0.50245000  0.03865000  0.28705000  1
  C  C151  1  0.53525000  0.17672000  0.54558000  1
  C  C152  1  0.54839000  0.14821000  0.28281000  1
  C  C153  1  0.55628000  0.22602000  0.31562000  1
  C  C154  1  0.45726000  0.26064000  0.55004000  1
  C  C155  1  0.54900000  0.18140000  0.39900000  1
  C  C156  1  0.55174000  0.18561000  0.34571000  1
  C  C157  1  0.60339000  0.03241000  0.21481000  1
  C  C158  1  0.50744000  0.22366000  0.42586000  1
  C  C159  1  0.55160000  0.14489000  0.32871000  1
  C  C160  1  0.54592000  0.10108000  0.27028000  1
  C  C161  1  0.45936000  0.97744000  0.30584000  1
  C  C162  1  0.58230000  0.13820000  0.41960000  1
  C  C163  1  0.49660000  0.08550000  0.30150000  1
  C  C164  1  0.46090000  0.26120000  0.50260000  1
  C  C165  1  0.45531000  0.02119000  0.31659000  1
  C  C166  1  0.60100000  0.07470000  0.22770000  1
  C  C167  1  0.57930000  0.13830000  0.46850000  1
  C  C168  1  0.49256000  0.74166000  0.09582000  1
  C  C169  1  0.50619000  0.37726000  0.78256000  1
  C  C170  1  0.49148000  0.73333000  0.04891000  1
  C  C171  1  0.44535000  0.76326000  0.03084000  1
  C  C172  1  0.50540000  0.42800000  0.78260000  1
  C  C173  1  0.44544000  0.75500000  0.98632000  1
  C  C174  1  0.46222000  0.50428000  0.82108000  1
  C  C175  1  0.44618000  0.74839000  0.81045000  1
  C  C176  1  0.43984000  0.73205000  0.77347000  1
  C  C177  1  0.49840000  0.52440000  0.77840000  1
  C  C178  1  0.49755000  0.71295000  0.96135000  1
  C  C179  1  0.46475000  0.45442000  0.82328000  1
  C  C180  1  0.45161000  0.71719000  0.85179000  1
  C  C181  1  0.44372000  0.68438000  0.77398000  1
  C  C182  1  0.54274000  0.44996000  0.73936000  1
  C  C183  1  0.45100000  0.60100000  0.81860000  1
  C  C184  1  0.44826000  0.65429000  0.81439000  1
  C  C185  1  0.39661000  0.78519000  0.96759000  1
  C  C186  1  0.49256000  0.57414000  0.77634000  1
  C  C187  1  0.44840000  0.67129000  0.85511000  1
  C  C188  1  0.45408000  0.72972000  0.89892000  1
  C  C189  1  0.54064000  0.69416000  0.02256000  1
  C  C190  1  0.41770000  0.58040000  0.86180000  1
  C  C191  1  0.50340000  0.69850000  0.91450000  1
  C  C192  1  0.53910000  0.49740000  0.73880000  1
  C  C193  1  0.54469000  0.68341000  0.97881000  1
  C  C194  1  0.39900000  0.77230000  0.92530000  1
  C  C195  1  0.42070000  0.53150000  0.86170000  1
  C  C196  1  0.66996000  0.09582000  0.74166000  1
  C  C197  1  0.33399000  0.78256000  0.37726000  1
  C  C198  1  0.72628000  0.04891000  0.73333000  1
  C  C199  1  0.76055000  0.03084000  0.76326000  1
  C  C200  1  0.28400000  0.78260000  0.42800000  1
  C  C201  1  0.81324000  0.98632000  0.75500000  1
  C  C202  1  0.21242000  0.82108000  0.50428000  1
  C  C203  1  0.99498000  0.81045000  0.74839000  1
  C  C204  1  0.05464000  0.77347000  0.73205000  1
  C  C205  1  0.19880000  0.77840000  0.52440000  1
  C  C206  1  0.82815000  0.96135000  0.71295000  1
  C  C207  1  0.25755000  0.82328000  0.45442000  1
  C  C208  1  0.97941000  0.85179000  0.71719000  1
  C  C209  1  0.09792000  0.77398000  0.68438000  1
  C  C210  1  0.26794000  0.73936000  0.44996000  1
  C  C211  1  0.12940000  0.81860000  0.60100000  1
  C  C212  1  0.08306000  0.81439000  0.65429000  1
  C  C213  1  0.85061000  0.96759000  0.78519000  1
  C  C214  1  0.15696000  0.77634000  0.57414000  1
  C  C215  1  0.02520000  0.85511000  0.67129000  1
  C  C216  1  0.91728000  0.89892000  0.72972000  1
  C  C217  1  0.74264000  0.02256000  0.69416000  1
  C  C218  1  0.14010000  0.86180000  0.58040000  1
  C  C219  1  0.88360000  0.91450000  0.69850000  1
  C  C220  1  0.22470000  0.73880000  0.49740000  1
  C  C221  1  0.79309000  0.97881000  0.68341000  1
  C  C222  1  0.90340000  0.92530000  0.77230000  1
  C  C223  1  0.18610000  0.86170000  0.53150000  1
  H  H224  1  0.74890000  0.79050000  0.04850000  1
  H  H225  1  0.26860000  0.44030000  0.85190000  1
  H  H226  1  0.13660000  0.67360000  0.74680000  1
  H  H227  1  0.28710000  0.43190000  0.71110000  1
  H  H228  1  0.83980000  0.81320000  0.98360000  1
  H  H229  1  0.14750000  0.58920000  0.74720000  1
  H  H230  1  0.71750000  0.67370000  0.03570000  1
  H  H231  1  0.11790000  0.59790000  0.89070000  1
  H  H232  1  0.89420000  0.67100000  0.89760000  1
  H  H233  1  0.21280000  0.51150000  0.71050000  1
  H  H234  1  0.80300000  0.65640000  0.96160000  1
  H  H235  1  0.93120000  0.79060000  0.91260000  1
  H  H236  1  0.19880000  0.51740000  0.88960000  1
  H  H237  1  0.91910000  0.81410000  0.81410000  1
  H  H238  1  0.41210000  0.04850000  0.79050000  1
  H  H239  1  0.43920000  0.85190000  0.44030000  1
  H  H240  1  0.44300000  0.74680000  0.67360000  1
  H  H241  1  0.56990000  0.71110000  0.43190000  1
  H  H242  1  0.36340000  0.98360000  0.81320000  1
  H  H243  1  0.51610000  0.74720000  0.58920000  1
  H  H244  1  0.57310000  0.03570000  0.67370000  1
  H  H245  1  0.39350000  0.89070000  0.59790000  1
  H  H246  1  0.53720000  0.89760000  0.67100000  1
  H  H247  1  0.56520000  0.71050000  0.51150000  1
  H  H248  1  0.57900000  0.96160000  0.65640000  1
  H  H249  1  0.36560000  0.91260000  0.79060000  1
  H  H250  1  0.39420000  0.88960000  0.51740000  1
  H  H251  1  0.45270000  0.81410000  0.81410000  1
  H  H252  1  0.58790000  0.20950000  0.95150000  1
  H  H253  1  0.56080000  0.55970000  0.14810000  1
  H  H254  1  0.55700000  0.32640000  0.25320000  1
  H  H255  1  0.43010000  0.56810000  0.28890000  1
  H  H256  1  0.63660000  0.18680000  0.01640000  1
  H  H257  1  0.48390000  0.41080000  0.25280000  1
  H  H258  1  0.42690000  0.32630000  0.96430000  1
  H  H259  1  0.60650000  0.40210000  0.10930000  1
  H  H260  1  0.46280000  0.32900000  0.10240000  1
  H  H261  1  0.43480000  0.48850000  0.28950000  1
  H  H262  1  0.42100000  0.34360000  0.03840000  1
  H  H263  1  0.63440000  0.20940000  0.08740000  1
  H  H264  1  0.60580000  0.48260000  0.11040000  1
  H  H265  1  0.54730000  0.18590000  0.18590000  1
  H  H266  1  0.25110000  0.95150000  0.20950000  1
  H  H267  1  0.73140000  0.14810000  0.55970000  1
  H  H268  1  0.86340000  0.25320000  0.32640000  1
  H  H269  1  0.71290000  0.28890000  0.56810000  1
  H  H270  1  0.16020000  0.01640000  0.18680000  1
  H  H271  1  0.85250000  0.25280000  0.41080000  1
  H  H272  1  0.28250000  0.96430000  0.32630000  1
  H  H273  1  0.88210000  0.10930000  0.40210000  1
  H  H274  1  0.10580000  0.10240000  0.32900000  1
  H  H275  1  0.78720000  0.28950000  0.48850000  1
  H  H276  1  0.19700000  0.03840000  0.34360000  1
  H  H277  1  0.06880000  0.08740000  0.20940000  1
  H  H278  1  0.80120000  0.11040000  0.48260000  1
  H  H279  1  0.08090000  0.18590000  0.18590000  1
  H  H280  1  0.25110000  0.20950000  0.95150000  1
  H  H281  1  0.73140000  0.55970000  0.14810000  1
  H  H282  1  0.86340000  0.32640000  0.25320000  1
  H  H283  1  0.71290000  0.56810000  0.28890000  1
  H  H284  1  0.16020000  0.18680000  0.01640000  1
  H  H285  1  0.85250000  0.41080000  0.25280000  1
  H  H286  1  0.28250000  0.32630000  0.96430000  1
  H  H287  1  0.88210000  0.40210000  0.10930000  1
  H  H288  1  0.10580000  0.32900000  0.10240000  1
  H  H289  1  0.78720000  0.48850000  0.28950000  1
  H  H290  1  0.19700000  0.34360000  0.03840000  1
  H  H291  1  0.06880000  0.20940000  0.08740000  1
  H  H292  1  0.80120000  0.48260000  0.11040000  1
  H  H293  1  0.58790000  0.95150000  0.20950000  1
  H  H294  1  0.56080000  0.14810000  0.55970000  1
  H  H295  1  0.55700000  0.25320000  0.32640000  1
  H  H296  1  0.43010000  0.28890000  0.56810000  1
  H  H297  1  0.63660000  0.01640000  0.18680000  1
  H  H298  1  0.48390000  0.25280000  0.41080000  1
  H  H299  1  0.42690000  0.96430000  0.32630000  1
  H  H300  1  0.60650000  0.10930000  0.40210000  1
  H  H301  1  0.46280000  0.10240000  0.32900000  1
  H  H302  1  0.43480000  0.28950000  0.48850000  1
  H  H303  1  0.42100000  0.03840000  0.34360000  1
  H  H304  1  0.63440000  0.08740000  0.20940000  1
  H  H305  1  0.60580000  0.11040000  0.48260000  1
  H  H306  1  0.41210000  0.79050000  0.04850000  1
  H  H307  1  0.43920000  0.44030000  0.85190000  1
  H  H308  1  0.44300000  0.67360000  0.74680000  1
  H  H309  1  0.56990000  0.43190000  0.71110000  1
  H  H310  1  0.36340000  0.81320000  0.98360000  1
  H  H311  1  0.51610000  0.58920000  0.74720000  1
  H  H312  1  0.57310000  0.67370000  0.03570000  1
  H  H313  1  0.39350000  0.59790000  0.89070000  1
  H  H314  1  0.53720000  0.67100000  0.89760000  1
  H  H315  1  0.56520000  0.51150000  0.71050000  1
  H  H316  1  0.57900000  0.65640000  0.96160000  1
  H  H317  1  0.36560000  0.79060000  0.91260000  1
  H  H318  1  0.39420000  0.51740000  0.88960000  1
  H  H319  1  0.74890000  0.04850000  0.79050000  1
  H  H320  1  0.26860000  0.85190000  0.44030000  1
  H  H321  1  0.13660000  0.74680000  0.67360000  1
  H  H322  1  0.28710000  0.71110000  0.43190000  1
  H  H323  1  0.83980000  0.98360000  0.81320000  1
  H  H324  1  0.14750000  0.74720000  0.58920000  1
  H  H325  1  0.71750000  0.03570000  0.67370000  1
  H  H326  1  0.11790000  0.89070000  0.59790000  1
  H  H327  1  0.89420000  0.89760000  0.67100000  1
  H  H328  1  0.21280000  0.71050000  0.51150000  1
  H  H329  1  0.80300000  0.96160000  0.65640000  1
  H  H330  1  0.93120000  0.91260000  0.79060000  1
  H  H331  1  0.19880000  0.88960000  0.51740000  1
  N  N332  1  0.95798000  0.79632000  0.79632000  1
  N  N333  1  0.44938000  0.79632000  0.79632000  1
  N  N334  1  0.55062000  0.20368000  0.20368000  1
  N  N335  1  0.04202000  0.20368000  0.20368000  1
  O  O336  1  0.35605000  0.36308000  0.81676000  1
  O  O337  1  0.64398000  0.70967000  0.11083000  1
  O  O338  1  0.34979000  0.35389000  0.74689000  1
  O  O339  1  0.65192000  0.77990000  0.11746000  1
  O  O340  1  0.54207000  0.79410000  0.26584000  1
  O  O341  1  0.53076000  0.78253000  0.15595000  1
  O  O342  1  0.53118000  0.68398000  0.25366000  1
  O  O343  1  0.46411000  0.81676000  0.36308000  1
  O  O344  1  0.53552000  0.11083000  0.70967000  1
  O  O345  1  0.54943000  0.74689000  0.35389000  1
  O  O346  1  0.45072000  0.11746000  0.77990000  1
  O  O347  1  0.39799000  0.26584000  0.79410000  1
  O  O348  1  0.53076000  0.15595000  0.78253000  1
  O  O349  1  0.53118000  0.25366000  0.68398000  1
  O  O350  1  0.53589000  0.63692000  0.18324000  1
  O  O351  1  0.46448000  0.29033000  0.88917000  1
  O  O352  1  0.45057000  0.64611000  0.25311000  1
  O  O353  1  0.54928000  0.22010000  0.88254000  1
  O  O354  1  0.60201000  0.20590000  0.73416000  1
  O  O355  1  0.46924000  0.21747000  0.84405000  1
  O  O356  1  0.46882000  0.31602000  0.74634000  1
  O  O357  1  0.64395000  0.18324000  0.63692000  1
  O  O358  1  0.35602000  0.88917000  0.29033000  1
  O  O359  1  0.65021000  0.25311000  0.64611000  1
  O  O360  1  0.34808000  0.88254000  0.22010000  1
  O  O361  1  0.45793000  0.73416000  0.20590000  1
  O  O362  1  0.46924000  0.84405000  0.21747000  1
  O  O363  1  0.46882000  0.74634000  0.31602000  1
  O  O364  1  0.64395000  0.63692000  0.18324000  1
  O  O365  1  0.35602000  0.29033000  0.88917000  1
  O  O366  1  0.65021000  0.64611000  0.25311000  1
  O  O367  1  0.34808000  0.22010000  0.88254000  1
  O  O368  1  0.45793000  0.20590000  0.73416000  1
  O  O369  1  0.53589000  0.18324000  0.63692000  1
  O  O370  1  0.46448000  0.88917000  0.29033000  1
  O  O371  1  0.45057000  0.25311000  0.64611000  1
  O  O372  1  0.54928000  0.88254000  0.22010000  1
  O  O373  1  0.60201000  0.73416000  0.20590000  1
  O  O374  1  0.46411000  0.36308000  0.81676000  1
  O  O375  1  0.53552000  0.70967000  0.11083000  1
  O  O376  1  0.54943000  0.35389000  0.74689000  1
  O  O377  1  0.45072000  0.77990000  0.11746000  1
  O  O378  1  0.39799000  0.79410000  0.26584000  1
  O  O379  1  0.35605000  0.81676000  0.36308000  1
  O  O380  1  0.64398000  0.11083000  0.70967000  1
  O  O381  1  0.34979000  0.74689000  0.35389000  1
  O  O382  1  0.65192000  0.11746000  0.77990000  1
  O  O383  1  0.54207000  0.26584000  0.79410000  1
  Zr  Zr384  1  0.56143000  0.70259000  0.17455000  1
  Zr  Zr385  1  0.57209000  0.81221000  0.18779000  1
  Zr  Zr386  1  0.57087000  0.71593000  0.28407000  1
  Zr  Zr387  1  0.56143000  0.17455000  0.70259000  1
  Zr  Zr388  1  0.42791000  0.18779000  0.81221000  1
  Zr  Zr389  1  0.42913000  0.28407000  0.71593000  1
  Zr  Zr390  1  0.43857000  0.29741000  0.82545000  1
  Zr  Zr391  1  0.57209000  0.18779000  0.81221000  1
  Zr  Zr392  1  0.57087000  0.28407000  0.71593000  1
  Zr  Zr393  1  0.43857000  0.82545000  0.29741000  1
  Zr  Zr394  1  0.42791000  0.81221000  0.18779000  1
  Zr  Zr395  1  0.42913000  0.71593000  0.28407000  1
