# generated using pymatgen
data_Zr3H21C40NO12
_symmetry_space_group_name_H-M   'P 1'
_cell_length_a   17.72300000
_cell_length_b   25.42504009
_cell_length_c   25.42504009
_cell_angle_alpha   80.05648907
_cell_angle_beta   69.60230398
_cell_angle_gamma   69.60230398
_symmetry_Int_Tables_number   1
_chemical_formula_structural   Zr3H21C40NO12
_chemical_formula_sum   'Zr12 H84 C160 N4 O48'
_cell_volume   10047.89844452
_cell_formula_units_Z   4
loop_
 _symmetry_equiv_pos_site_id
 _symmetry_equiv_pos_as_xyz
  1  'x, y, z'
loop_
 _atom_site_type_symbol
 _atom_site_label
 _atom_site_symmetry_multiplicity
 _atom_site_fract_x
 _atom_site_fract_y
 _atom_site_fract_z
 _atom_site_occupancy
  C  C0  1  0.52760000  0.74790000  0.43890000  1
  C  C1  1  0.52370000  0.75730000  0.49670000  1
  C  C2  1  0.58540000  0.72330000  0.52090000  1
  C  C3  1  0.57850000  0.73390000  0.57510000  1
  C  C4  1  0.51370000  0.78380000  0.60120000  1
  C  C5  1  0.45740000  0.81840000  0.57320000  1
  C  C6  1  0.45990000  0.80500000  0.52240000  1
  C  C7  1  0.51430000  0.80360000  0.65320000  1
  C  C8  1  0.51660000  0.76950000  0.70230000  1
  C  C9  1  0.50850000  0.79240000  0.75180000  1
  C  C10  1  0.50640000  0.84980000  0.75000000  1
  C  C11  1  0.50390000  0.88250000  0.70070000  1
  C  C12  1  0.50830000  0.85950000  0.65410000  1
  C  C13  1  0.49380000  0.94400000  0.69980000  1
  C  C14  1  0.43320000  0.97500000  0.74440000  1
  C  C15  1  0.43140000  0.03110000  0.74510000  1
  C  C16  1  0.48480000  0.05590000  0.70050000  1
  C  C17  1  0.53510000  0.02510000  0.65290000  1
  C  C18  1  0.53930000  0.96940000  0.65300000  1
  C  C19  1  0.47820000  0.11580000  0.69720000  1
  C  C20  1  0.28560000  0.43890000  0.74790000  1
  C  C21  1  0.22230000  0.49670000  0.75730000  1
  C  C22  1  0.17040000  0.52090000  0.72330000  1
  C  C23  1  0.11250000  0.57510000  0.73390000  1
  C  C24  1  0.10130000  0.60120000  0.78380000  1
  C  C25  1  0.15100000  0.57320000  0.81840000  1
  C  C26  1  0.21270000  0.52240000  0.80500000  1
  C  C27  1  0.02890000  0.65320000  0.80360000  1
  C  C28  1  0.01160000  0.70230000  0.76950000  1
  C  C29  1  0.94730000  0.75180000  0.79240000  1
  C  C30  1  0.89380000  0.75000000  0.84980000  1
  C  C31  1  0.91290000  0.70070000  0.88250000  1
  C  C32  1  0.97810000  0.65410000  0.85950000  1
  C  C33  1  0.86240000  0.69980000  0.94400000  1
  C  C34  1  0.84740000  0.74440000  0.97500000  1
  C  C35  1  0.79240000  0.74510000  0.03110000  1
  C  C36  1  0.75880000  0.70050000  0.05590000  1
  C  C37  1  0.78690000  0.65290000  0.02510000  1
  C  C38  1  0.83830000  0.65300000  0.96940000  1
  C  C39  1  0.70880000  0.69720000  0.11580000  1
  C  C40  1  0.71440000  0.25210000  0.56110000  1
  C  C41  1  0.77770000  0.24270000  0.50330000  1
  C  C42  1  0.82960000  0.27670000  0.47910000  1
  C  C43  1  0.88750000  0.26610000  0.42490000  1
  C  C44  1  0.89870000  0.21620000  0.39880000  1
  C  C45  1  0.84900000  0.18160000  0.42680000  1
  C  C46  1  0.78730000  0.19500000  0.47760000  1
  C  C47  1  0.97110000  0.19640000  0.34680000  1
  C  C48  1  0.98840000  0.23050000  0.29770000  1
  C  C49  1  0.05270000  0.20760000  0.24820000  1
  C  C50  1  0.10620000  0.15020000  0.25000000  1
  C  C51  1  0.08710000  0.11750000  0.29930000  1
  C  C52  1  0.02190000  0.14050000  0.34590000  1
  C  C53  1  0.13760000  0.05600000  0.30020000  1
  C  C54  1  0.15260000  0.02500000  0.25560000  1
  C  C55  1  0.20760000  0.96890000  0.25490000  1
  C  C56  1  0.24120000  0.94410000  0.29950000  1
  C  C57  1  0.21310000  0.97490000  0.34710000  1
  C  C58  1  0.16170000  0.03060000  0.34700000  1
  C  C59  1  0.29120000  0.88420000  0.30280000  1
  C  C60  1  0.47240000  0.56110000  0.25210000  1
  C  C61  1  0.47630000  0.50330000  0.24270000  1
  C  C62  1  0.41460000  0.47910000  0.27670000  1
  C  C63  1  0.42150000  0.42490000  0.26610000  1
  C  C64  1  0.48630000  0.39880000  0.21620000  1
  C  C65  1  0.54260000  0.42680000  0.18160000  1
  C  C66  1  0.54010000  0.47760000  0.19500000  1
  C  C67  1  0.48570000  0.34680000  0.19640000  1
  C  C68  1  0.48340000  0.29770000  0.23050000  1
  C  C69  1  0.49150000  0.24820000  0.20760000  1
  C  C70  1  0.49360000  0.25000000  0.15020000  1
  C  C71  1  0.49610000  0.29930000  0.11750000  1
  C  C72  1  0.49170000  0.34590000  0.14050000  1
  C  C73  1  0.50620000  0.30020000  0.05600000  1
  C  C74  1  0.56680000  0.25560000  0.02500000  1
  C  C75  1  0.56860000  0.25490000  0.96890000  1
  C  C76  1  0.51520000  0.29950000  0.94410000  1
  C  C77  1  0.46490000  0.34710000  0.97490000  1
  C  C78  1  0.46070000  0.34700000  0.03060000  1
  C  C79  1  0.52180000  0.30280000  0.88420000  1
  C  C80  1  0.47240000  0.25210000  0.56110000  1
  C  C81  1  0.47630000  0.24270000  0.50330000  1
  C  C82  1  0.41460000  0.27670000  0.47910000  1
  C  C83  1  0.42150000  0.26610000  0.42490000  1
  C  C84  1  0.48630000  0.21620000  0.39880000  1
  C  C85  1  0.54260000  0.18160000  0.42680000  1
  C  C86  1  0.54010000  0.19500000  0.47760000  1
  C  C87  1  0.48570000  0.19640000  0.34680000  1
  C  C88  1  0.48340000  0.23050000  0.29770000  1
  C  C89  1  0.49150000  0.20760000  0.24820000  1
  C  C90  1  0.49360000  0.15020000  0.25000000  1
  C  C91  1  0.49610000  0.11750000  0.29930000  1
  C  C92  1  0.49170000  0.14050000  0.34590000  1
  C  C93  1  0.50620000  0.05600000  0.30020000  1
  C  C94  1  0.56680000  0.02500000  0.25560000  1
  C  C95  1  0.56860000  0.96890000  0.25490000  1
  C  C96  1  0.51520000  0.94410000  0.29950000  1
  C  C97  1  0.46490000  0.97490000  0.34710000  1
  C  C98  1  0.46070000  0.03060000  0.34700000  1
  C  C99  1  0.52180000  0.88420000  0.30280000  1
  C  C100  1  0.71440000  0.56110000  0.25210000  1
  C  C101  1  0.77770000  0.50330000  0.24270000  1
  C  C102  1  0.82960000  0.47910000  0.27670000  1
  C  C103  1  0.88750000  0.42490000  0.26610000  1
  C  C104  1  0.89870000  0.39880000  0.21620000  1
  C  C105  1  0.84900000  0.42680000  0.18160000  1
  C  C106  1  0.78730000  0.47760000  0.19500000  1
  C  C107  1  0.97110000  0.34680000  0.19640000  1
  C  C108  1  0.98840000  0.29770000  0.23050000  1
  C  C109  1  0.05270000  0.24820000  0.20760000  1
  C  C110  1  0.10620000  0.25000000  0.15020000  1
  C  C111  1  0.08710000  0.29930000  0.11750000  1
  C  C112  1  0.02190000  0.34590000  0.14050000  1
  C  C113  1  0.13760000  0.30020000  0.05600000  1
  C  C114  1  0.15260000  0.25560000  0.02500000  1
  C  C115  1  0.20760000  0.25490000  0.96890000  1
  C  C116  1  0.24120000  0.29950000  0.94410000  1
  C  C117  1  0.21310000  0.34710000  0.97490000  1
  C  C118  1  0.16170000  0.34700000  0.03060000  1
  C  C119  1  0.29120000  0.30280000  0.88420000  1
  C  C120  1  0.28560000  0.74790000  0.43890000  1
  C  C121  1  0.22230000  0.75730000  0.49670000  1
  C  C122  1  0.17040000  0.72330000  0.52090000  1
  C  C123  1  0.11250000  0.73390000  0.57510000  1
  C  C124  1  0.10130000  0.78380000  0.60120000  1
  C  C125  1  0.15100000  0.81840000  0.57320000  1
  C  C126  1  0.21270000  0.80500000  0.52240000  1
  C  C127  1  0.02890000  0.80360000  0.65320000  1
  C  C128  1  0.01160000  0.76950000  0.70230000  1
  C  C129  1  0.94730000  0.79240000  0.75180000  1
  C  C130  1  0.89380000  0.84980000  0.75000000  1
  C  C131  1  0.91290000  0.88250000  0.70070000  1
  C  C132  1  0.97810000  0.85950000  0.65410000  1
  C  C133  1  0.86240000  0.94400000  0.69980000  1
  C  C134  1  0.84740000  0.97500000  0.74440000  1
  C  C135  1  0.79240000  0.03110000  0.74510000  1
  C  C136  1  0.75880000  0.05590000  0.70050000  1
  C  C137  1  0.78690000  0.02510000  0.65290000  1
  C  C138  1  0.83830000  0.96940000  0.65300000  1
  C  C139  1  0.70880000  0.11580000  0.69720000  1
  C  C140  1  0.52760000  0.43890000  0.74790000  1
  C  C141  1  0.52370000  0.49670000  0.75730000  1
  C  C142  1  0.58540000  0.52090000  0.72330000  1
  C  C143  1  0.57850000  0.57510000  0.73390000  1
  C  C144  1  0.51370000  0.60120000  0.78380000  1
  C  C145  1  0.45740000  0.57320000  0.81840000  1
  C  C146  1  0.45990000  0.52240000  0.80500000  1
  C  C147  1  0.51430000  0.65320000  0.80360000  1
  C  C148  1  0.51660000  0.70230000  0.76950000  1
  C  C149  1  0.50850000  0.75180000  0.79240000  1
  C  C150  1  0.50640000  0.75000000  0.84980000  1
  C  C151  1  0.50390000  0.70070000  0.88250000  1
  C  C152  1  0.50830000  0.65410000  0.85950000  1
  C  C153  1  0.49380000  0.69980000  0.94400000  1
  C  C154  1  0.43320000  0.74440000  0.97500000  1
  C  C155  1  0.43140000  0.74510000  0.03110000  1
  C  C156  1  0.48480000  0.70050000  0.05590000  1
  C  C157  1  0.53510000  0.65290000  0.02510000  1
  C  C158  1  0.53930000  0.65300000  0.96940000  1
  C  C159  1  0.47820000  0.69720000  0.11580000  1
  H  H160  1  0.63110000  0.69370000  0.50110000  1
  H  H161  1  0.61560000  0.70880000  0.59440000  1
  H  H162  1  0.41660000  0.85180000  0.58960000  1
  H  H163  1  0.41900000  0.82780000  0.50480000  1
  H  H164  1  0.50670000  0.86480000  0.78160000  1
  H  H165  1  0.50720000  0.88300000  0.62080000  1
  H  H166  1  0.39480000  0.95920000  0.77320000  1
  H  H167  1  0.39320000  0.05270000  0.77630000  1
  H  H168  1  0.56640000  0.04220000  0.62040000  1
  H  H169  1  0.57380000  0.94870000  0.62070000  1
  H  H170  1  0.51680000  0.69070000  0.69070000  1
  H  H171  1  0.17410000  0.50110000  0.69370000  1
  H  H172  1  0.08120000  0.59440000  0.70880000  1
  H  H173  1  0.14200000  0.58960000  0.85180000  1
  H  H174  1  0.24840000  0.50480000  0.82780000  1
  H  H175  1  0.84690000  0.78160000  0.86480000  1
  H  H176  1  0.98900000  0.62080000  0.88300000  1
  H  H177  1  0.87280000  0.77320000  0.95920000  1
  H  H178  1  0.77780000  0.77630000  0.05270000  1
  H  H179  1  0.77100000  0.62040000  0.04220000  1
  H  H180  1  0.85680000  0.62070000  0.94870000  1
  H  H181  1  0.10180000  0.69070000  0.69070000  1
  H  H182  1  0.82590000  0.30630000  0.49890000  1
  H  H183  1  0.91880000  0.29120000  0.40560000  1
  H  H184  1  0.85800000  0.14820000  0.41040000  1
  H  H185  1  0.75160000  0.17220000  0.49520000  1
  H  H186  1  0.15310000  0.13520000  0.21840000  1
  H  H187  1  0.01100000  0.11700000  0.37920000  1
  H  H188  1  0.12720000  0.04080000  0.22680000  1
  H  H189  1  0.22220000  0.94730000  0.22370000  1
  H  H190  1  0.22900000  0.95780000  0.37960000  1
  H  H191  1  0.14320000  0.05130000  0.37930000  1
  H  H192  1  0.89820000  0.30930000  0.30930000  1
  H  H193  1  0.36890000  0.49890000  0.30630000  1
  H  H194  1  0.38440000  0.40560000  0.29120000  1
  H  H195  1  0.58340000  0.41040000  0.14820000  1
  H  H196  1  0.58100000  0.49520000  0.17220000  1
  H  H197  1  0.49330000  0.21840000  0.13520000  1
  H  H198  1  0.49280000  0.37920000  0.11700000  1
  H  H199  1  0.60520000  0.22680000  0.04080000  1
  H  H200  1  0.60680000  0.22370000  0.94730000  1
  H  H201  1  0.43360000  0.37960000  0.95780000  1
  H  H202  1  0.42620000  0.37930000  0.05130000  1
  H  H203  1  0.48320000  0.30930000  0.30930000  1
  H  H204  1  0.36890000  0.30630000  0.49890000  1
  H  H205  1  0.38440000  0.29120000  0.40560000  1
  H  H206  1  0.58340000  0.14820000  0.41040000  1
  H  H207  1  0.58100000  0.17220000  0.49520000  1
  H  H208  1  0.49330000  0.13520000  0.21840000  1
  H  H209  1  0.49280000  0.11700000  0.37920000  1
  H  H210  1  0.60520000  0.04080000  0.22680000  1
  H  H211  1  0.60680000  0.94730000  0.22370000  1
  H  H212  1  0.43360000  0.95780000  0.37960000  1
  H  H213  1  0.42620000  0.05130000  0.37930000  1
  H  H214  1  0.82590000  0.49890000  0.30630000  1
  H  H215  1  0.91880000  0.40560000  0.29120000  1
  H  H216  1  0.85800000  0.41040000  0.14820000  1
  H  H217  1  0.75160000  0.49520000  0.17220000  1
  H  H218  1  0.15310000  0.21840000  0.13520000  1
  H  H219  1  0.01100000  0.37920000  0.11700000  1
  H  H220  1  0.12720000  0.22680000  0.04080000  1
  H  H221  1  0.22220000  0.22370000  0.94730000  1
  H  H222  1  0.22900000  0.37960000  0.95780000  1
  H  H223  1  0.14320000  0.37930000  0.05130000  1
  H  H224  1  0.17410000  0.69370000  0.50110000  1
  H  H225  1  0.08120000  0.70880000  0.59440000  1
  H  H226  1  0.14200000  0.85180000  0.58960000  1
  H  H227  1  0.24840000  0.82780000  0.50480000  1
  H  H228  1  0.84690000  0.86480000  0.78160000  1
  H  H229  1  0.98900000  0.88300000  0.62080000  1
  H  H230  1  0.87280000  0.95920000  0.77320000  1
  H  H231  1  0.77780000  0.05270000  0.77630000  1
  H  H232  1  0.77100000  0.04220000  0.62040000  1
  H  H233  1  0.85680000  0.94870000  0.62070000  1
  H  H234  1  0.63110000  0.50110000  0.69370000  1
  H  H235  1  0.61560000  0.59440000  0.70880000  1
  H  H236  1  0.41660000  0.58960000  0.85180000  1
  H  H237  1  0.41900000  0.50480000  0.82780000  1
  H  H238  1  0.50670000  0.78160000  0.86480000  1
  H  H239  1  0.50720000  0.62080000  0.88300000  1
  H  H240  1  0.39480000  0.77320000  0.95920000  1
  H  H241  1  0.39320000  0.77630000  0.05270000  1
  H  H242  1  0.56640000  0.62040000  0.04220000  1
  H  H243  1  0.57380000  0.62070000  0.94870000  1
  N  N244  1  0.51670000  0.71340000  0.71340000  1
  N  N245  1  0.05650000  0.71340000  0.71340000  1
  N  N246  1  0.94350000  0.28660000  0.28660000  1
  N  N247  1  0.48330000  0.28660000  0.28660000  1
  O  O248  1  0.47140000  0.78370000  0.41990000  1
  O  O249  1  0.58190000  0.70340000  0.41580000  1
  O  O250  1  0.52960000  0.13570000  0.66070000  1
  O  O251  1  0.41690000  0.14340000  0.73940000  1
  O  O252  1  0.36300000  0.75710000  0.31370000  1
  O  O253  1  0.46670000  0.70070000  0.36590000  1
  O  O254  1  0.46750000  0.80570000  0.25930000  1
  O  O255  1  0.32500000  0.41990000  0.78370000  1
  O  O256  1  0.29890000  0.41580000  0.70340000  1
  O  O257  1  0.67400000  0.66070000  0.13570000  1
  O  O258  1  0.70030000  0.73940000  0.14340000  1
  O  O259  1  0.56620000  0.31370000  0.75710000  1
  O  O260  1  0.46670000  0.36590000  0.70070000  1
  O  O261  1  0.46750000  0.25930000  0.80570000  1
  O  O262  1  0.67500000  0.21630000  0.58010000  1
  O  O263  1  0.70110000  0.29660000  0.58420000  1
  O  O264  1  0.32600000  0.86430000  0.33930000  1
  O  O265  1  0.29970000  0.85660000  0.26060000  1
  O  O266  1  0.43380000  0.24290000  0.68630000  1
  O  O267  1  0.53330000  0.29930000  0.63410000  1
  O  O268  1  0.53250000  0.19430000  0.74070000  1
  O  O269  1  0.52860000  0.58010000  0.21630000  1
  O  O270  1  0.41810000  0.58420000  0.29660000  1
  O  O271  1  0.47040000  0.33930000  0.86430000  1
  O  O272  1  0.58310000  0.26060000  0.85660000  1
  O  O273  1  0.63700000  0.68630000  0.24290000  1
  O  O274  1  0.53330000  0.63410000  0.29930000  1
  O  O275  1  0.53250000  0.74070000  0.19430000  1
  O  O276  1  0.52860000  0.21630000  0.58010000  1
  O  O277  1  0.41810000  0.29660000  0.58420000  1
  O  O278  1  0.47040000  0.86430000  0.33930000  1
  O  O279  1  0.58310000  0.85660000  0.26060000  1
  O  O280  1  0.63700000  0.24290000  0.68630000  1
  O  O281  1  0.67500000  0.58010000  0.21630000  1
  O  O282  1  0.70110000  0.58420000  0.29660000  1
  O  O283  1  0.32600000  0.33930000  0.86430000  1
  O  O284  1  0.29970000  0.26060000  0.85660000  1
  O  O285  1  0.43380000  0.68630000  0.24290000  1
  O  O286  1  0.32500000  0.78370000  0.41990000  1
  O  O287  1  0.29890000  0.70340000  0.41580000  1
  O  O288  1  0.67400000  0.13570000  0.66070000  1
  O  O289  1  0.70030000  0.14340000  0.73940000  1
  O  O290  1  0.56620000  0.75710000  0.31370000  1
  O  O291  1  0.47140000  0.41990000  0.78370000  1
  O  O292  1  0.58190000  0.41580000  0.70340000  1
  O  O293  1  0.52960000  0.66070000  0.13570000  1
  O  O294  1  0.41690000  0.73940000  0.14340000  1
  O  O295  1  0.36300000  0.31370000  0.75710000  1
  Zr  Zr296  1  0.42988000  0.79217000  0.34807000  1
  Zr  Zr297  1  0.39956000  0.66695000  0.33305000  1
  Zr  Zr298  1  0.40000000  0.77587000  0.22413000  1
  Zr  Zr299  1  0.42988000  0.34807000  0.79217000  1
  Zr  Zr300  1  0.60044000  0.33305000  0.66695000  1
  Zr  Zr301  1  0.60000000  0.22413000  0.77587000  1
  Zr  Zr302  1  0.57012000  0.20783000  0.65193000  1
  Zr  Zr303  1  0.39956000  0.33305000  0.66695000  1
  Zr  Zr304  1  0.40000000  0.22413000  0.77587000  1
  Zr  Zr305  1  0.57012000  0.65193000  0.20783000  1
  Zr  Zr306  1  0.60044000  0.66695000  0.33305000  1
  Zr  Zr307  1  0.60000000  0.77587000  0.22413000  1
