# generated using pymatgen
data_Zr3H23C41NO12
_symmetry_space_group_name_H-M   'P 1'
_cell_length_a   21.54010000
_cell_length_b   31.99960000
_cell_length_c   33.16250000
_cell_angle_alpha   90.00000000
_cell_angle_beta   90.00000000
_cell_angle_gamma   90.00000000
_symmetry_Int_Tables_number   1
_chemical_formula_structural   Zr3H23C41NO12
_chemical_formula_sum   'Zr24 H184 C328 N8 O96'
_cell_volume   22858.06839057
_cell_formula_units_Z   8
loop_
 _symmetry_equiv_pos_site_id
 _symmetry_equiv_pos_as_xyz
  1  'x, y, z'
loop_
 _atom_site_type_symbol
 _atom_site_label
 _atom_site_symmetry_multiplicity
 _atom_site_fract_x
 _atom_site_fract_y
 _atom_site_fract_z
 _atom_site_occupancy
  Zr  Zr0  1  0.50000000  0.72198000  0.92604000  1
  Zr  Zr1  1  0.00000000  0.22198000  0.42604000  1
  Zr  Zr2  1  0.50000000  0.72198000  0.07396000  1
  Zr  Zr3  1  1.00000000  0.22198000  0.57396000  1
  Zr  Zr4  1  0.50000000  0.27802000  0.92604000  1
  Zr  Zr5  1  0.00000000  0.77802000  0.42604000  1
  Zr  Zr6  1  0.50000000  0.27802000  0.07396000  1
  Zr  Zr7  1  1.00000000  0.77802000  0.57396000  1
  Zr  Zr8  1  0.58138000  0.66666667  0.00000000  1
  Zr  Zr9  1  0.08138000  0.16668000  0.50000000  1
  Zr  Zr10  1  0.41862000  0.66666667  0.00000000  1
  Zr  Zr11  1  0.91862000  0.16668000  0.50000000  1
  Zr  Zr12  1  0.41862000  0.33333333  0.00000000  1
  Zr  Zr13  1  0.91862000  0.83332000  0.50000000  1
  Zr  Zr14  1  0.58138000  0.33333333  0.00000000  1
  Zr  Zr15  1  0.08138000  0.83332000  0.50000000  1
  Zr  Zr16  1  0.91892000  0.72292000  0.50000000  1
  Zr  Zr17  1  0.41892000  0.22292000  0.00000000  1
  Zr  Zr18  1  0.08108000  0.72292000  0.50000000  1
  Zr  Zr19  1  0.58108000  0.22292000  0.00000000  1
  Zr  Zr20  1  0.08108000  0.27708000  0.50000000  1
  Zr  Zr21  1  0.58108000  0.77708000  0.00000000  1
  Zr  Zr22  1  0.91892000  0.27708000  0.50000000  1
  Zr  Zr23  1  0.41892000  0.77708000  0.00000000  1
  H  H24  1  0.59191000  0.66227000  0.82483000  1
  H  H25  1  0.64746000  0.63088000  0.77260000  1
  H  H26  1  0.74770000  0.56655000  0.85370000  1
  H  H27  1  0.69197000  0.59760000  0.90589000  1
  H  H28  1  0.76113000  0.63463000  0.75127000  1
  H  H29  1  0.83937000  0.54172000  0.68620000  1
  H  H30  1  0.85501000  0.66856000  0.72380000  1
  H  H31  1  0.89831000  0.71357000  0.67660000  1
  H  H32  1  0.84246000  0.63706000  0.58733000  1
  H  H33  1  0.80601000  0.58948000  0.63485000  1
  H  H34  1  0.68134000  0.51220000  0.83756000  1
  H  H35  1  0.65693000  0.47124000  0.81487000  1
  H  H36  1  0.63895000  0.51656000  0.79815000  1
  H  H37  1  0.09191000  0.16227000  0.32483000  1
  H  H38  1  0.14746000  0.13088000  0.27260000  1
  H  H39  1  0.24770000  0.06655000  0.35370000  1
  H  H40  1  0.19197000  0.09760000  0.40589000  1
  H  H41  1  0.26113000  0.13463000  0.25127000  1
  H  H42  1  0.33937000  0.04172000  0.18620000  1
  H  H43  1  0.35501000  0.16856000  0.22380000  1
  H  H44  1  0.39831000  0.21357000  0.17660000  1
  H  H45  1  0.34246000  0.13706000  0.08733000  1
  H  H46  1  0.30601000  0.08948000  0.13485000  1
  H  H47  1  0.18134000  0.01220000  0.33756000  1
  H  H48  1  0.15693000  0.97124000  0.31487000  1
  H  H49  1  0.13895000  0.01656000  0.29815000  1
  H  H50  1  0.40809000  0.66227000  0.17517000  1
  H  H51  1  0.35254000  0.63088000  0.22740000  1
  H  H52  1  0.25230000  0.56655000  0.14630000  1
  H  H53  1  0.30803000  0.59760000  0.09411000  1
  H  H54  1  0.23887000  0.63463000  0.24873000  1
  H  H55  1  0.16063000  0.54172000  0.31380000  1
  H  H56  1  0.14499000  0.66856000  0.27620000  1
  H  H57  1  0.10169000  0.71357000  0.32340000  1
  H  H58  1  0.15754000  0.63706000  0.41267000  1
  H  H59  1  0.19399000  0.58948000  0.36515000  1
  H  H60  1  0.90809000  0.16227000  0.67517000  1
  H  H61  1  0.85254000  0.13088000  0.72740000  1
  H  H62  1  0.75230000  0.06655000  0.64630000  1
  H  H63  1  0.80803000  0.09760000  0.59411000  1
  H  H64  1  0.73887000  0.13463000  0.74873000  1
  H  H65  1  0.66063000  0.04172000  0.81380000  1
  H  H66  1  0.64499000  0.16856000  0.77620000  1
  H  H67  1  0.60169000  0.21357000  0.82340000  1
  H  H68  1  0.65754000  0.13706000  0.91267000  1
  H  H69  1  0.69399000  0.08948000  0.86515000  1
  H  H70  1  0.81866000  0.01220000  0.66244000  1
  H  H71  1  0.84307000  0.97124000  0.68513000  1
  H  H72  1  0.86105000  0.01656000  0.70185000  1
  H  H73  1  0.40809000  0.33773000  0.82483000  1
  H  H74  1  0.35254000  0.36912000  0.77260000  1
  H  H75  1  0.25230000  0.43345000  0.85370000  1
  H  H76  1  0.30803000  0.40240000  0.90589000  1
  H  H77  1  0.23887000  0.36537000  0.75127000  1
  H  H78  1  0.16063000  0.45828000  0.68620000  1
  H  H79  1  0.14499000  0.33144000  0.72380000  1
  H  H80  1  0.10169000  0.28643000  0.67660000  1
  H  H81  1  0.15754000  0.36294000  0.58733000  1
  H  H82  1  0.19399000  0.41052000  0.63485000  1
  H  H83  1  0.31866000  0.48780000  0.83756000  1
  H  H84  1  0.34307000  0.52876000  0.81487000  1
  H  H85  1  0.36105000  0.48344000  0.79815000  1
  H  H86  1  0.90809000  0.83773000  0.32483000  1
  H  H87  1  0.85254000  0.86912000  0.27260000  1
  H  H88  1  0.75230000  0.93345000  0.35370000  1
  H  H89  1  0.80803000  0.90240000  0.40589000  1
  H  H90  1  0.73887000  0.86537000  0.25127000  1
  H  H91  1  0.66063000  0.95828000  0.18620000  1
  H  H92  1  0.64499000  0.83144000  0.22380000  1
  H  H93  1  0.60169000  0.78643000  0.17660000  1
  H  H94  1  0.65754000  0.86294000  0.08733000  1
  H  H95  1  0.69399000  0.91052000  0.13485000  1
  H  H96  1  0.59191000  0.33773000  0.17517000  1
  H  H97  1  0.64746000  0.36912000  0.22740000  1
  H  H98  1  0.74770000  0.43345000  0.14630000  1
  H  H99  1  0.69197000  0.40240000  0.09411000  1
  H  H100  1  0.76113000  0.36537000  0.24873000  1
  H  H101  1  0.83937000  0.45828000  0.31380000  1
  H  H102  1  0.85501000  0.33144000  0.27620000  1
  H  H103  1  0.89831000  0.28643000  0.32340000  1
  H  H104  1  0.84246000  0.36294000  0.41267000  1
  H  H105  1  0.80601000  0.41052000  0.36515000  1
  H  H106  1  0.09191000  0.83773000  0.67517000  1
  H  H107  1  0.14746000  0.86912000  0.72740000  1
  H  H108  1  0.24770000  0.93345000  0.64630000  1
  H  H109  1  0.19197000  0.90240000  0.59411000  1
  H  H110  1  0.26113000  0.86537000  0.74873000  1
  H  H111  1  0.33937000  0.95828000  0.81380000  1
  H  H112  1  0.35501000  0.83144000  0.77620000  1
  H  H113  1  0.39831000  0.78643000  0.82340000  1
  H  H114  1  0.34246000  0.86294000  0.91267000  1
  H  H115  1  0.30601000  0.91052000  0.86515000  1
  H  H116  1  0.40809000  0.33773000  0.17517000  1
  H  H117  1  0.35254000  0.36912000  0.22740000  1
  H  H118  1  0.25230000  0.43345000  0.14630000  1
  H  H119  1  0.30803000  0.40240000  0.09411000  1
  H  H120  1  0.23887000  0.36537000  0.24873000  1
  H  H121  1  0.16063000  0.45828000  0.31380000  1
  H  H122  1  0.14499000  0.33144000  0.27620000  1
  H  H123  1  0.10169000  0.28643000  0.32340000  1
  H  H124  1  0.15754000  0.36294000  0.41267000  1
  H  H125  1  0.19399000  0.41052000  0.36515000  1
  H  H126  1  0.31866000  0.48780000  0.16244000  1
  H  H127  1  0.34307000  0.52876000  0.18513000  1
  H  H128  1  0.36105000  0.48344000  0.20185000  1
  H  H129  1  0.90809000  0.83773000  0.67517000  1
  H  H130  1  0.85254000  0.86912000  0.72740000  1
  H  H131  1  0.75230000  0.93345000  0.64630000  1
  H  H132  1  0.80803000  0.90240000  0.59411000  1
  H  H133  1  0.73887000  0.86537000  0.74873000  1
  H  H134  1  0.66063000  0.95828000  0.81380000  1
  H  H135  1  0.64499000  0.83144000  0.77620000  1
  H  H136  1  0.60169000  0.78643000  0.82340000  1
  H  H137  1  0.65754000  0.86294000  0.91267000  1
  H  H138  1  0.69399000  0.91052000  0.86515000  1
  H  H139  1  0.59191000  0.33773000  0.82483000  1
  H  H140  1  0.64746000  0.36912000  0.77260000  1
  H  H141  1  0.74770000  0.43345000  0.85370000  1
  H  H142  1  0.69197000  0.40240000  0.90589000  1
  H  H143  1  0.76113000  0.36537000  0.75127000  1
  H  H144  1  0.83937000  0.45828000  0.68620000  1
  H  H145  1  0.85501000  0.33144000  0.72380000  1
  H  H146  1  0.89831000  0.28643000  0.67660000  1
  H  H147  1  0.84246000  0.36294000  0.58733000  1
  H  H148  1  0.80601000  0.41052000  0.63485000  1
  H  H149  1  0.09191000  0.83773000  0.32483000  1
  H  H150  1  0.14746000  0.86912000  0.27260000  1
  H  H151  1  0.24770000  0.93345000  0.35370000  1
  H  H152  1  0.19197000  0.90240000  0.40589000  1
  H  H153  1  0.26113000  0.86537000  0.25127000  1
  H  H154  1  0.33937000  0.95828000  0.18620000  1
  H  H155  1  0.35501000  0.83144000  0.22380000  1
  H  H156  1  0.39831000  0.78643000  0.17660000  1
  H  H157  1  0.34246000  0.86294000  0.08733000  1
  H  H158  1  0.30601000  0.91052000  0.13485000  1
  H  H159  1  0.59191000  0.66227000  0.17517000  1
  H  H160  1  0.64746000  0.63088000  0.22740000  1
  H  H161  1  0.74770000  0.56655000  0.14630000  1
  H  H162  1  0.69197000  0.59760000  0.09411000  1
  H  H163  1  0.76113000  0.63463000  0.24873000  1
  H  H164  1  0.83937000  0.54172000  0.31380000  1
  H  H165  1  0.85501000  0.66856000  0.27620000  1
  H  H166  1  0.89831000  0.71357000  0.32340000  1
  H  H167  1  0.84246000  0.63706000  0.41267000  1
  H  H168  1  0.80601000  0.58948000  0.36515000  1
  H  H169  1  0.68134000  0.51220000  0.16244000  1
  H  H170  1  0.65693000  0.47124000  0.18513000  1
  H  H171  1  0.63895000  0.51656000  0.20185000  1
  H  H172  1  0.09191000  0.16227000  0.67517000  1
  H  H173  1  0.14746000  0.13088000  0.72740000  1
  H  H174  1  0.24770000  0.06655000  0.64630000  1
  H  H175  1  0.19197000  0.09760000  0.59411000  1
  H  H176  1  0.26113000  0.13463000  0.74873000  1
  H  H177  1  0.33937000  0.04172000  0.81380000  1
  H  H178  1  0.35501000  0.16856000  0.77620000  1
  H  H179  1  0.39831000  0.21357000  0.82340000  1
  H  H180  1  0.34246000  0.13706000  0.91267000  1
  H  H181  1  0.30601000  0.08948000  0.86515000  1
  H  H182  1  0.18134000  0.01220000  0.66244000  1
  H  H183  1  0.15693000  0.97124000  0.68513000  1
  H  H184  1  0.13895000  0.01656000  0.70185000  1
  H  H185  1  0.40809000  0.66227000  0.82483000  1
  H  H186  1  0.35254000  0.63088000  0.77260000  1
  H  H187  1  0.25230000  0.56655000  0.85370000  1
  H  H188  1  0.30803000  0.59760000  0.90589000  1
  H  H189  1  0.23887000  0.63463000  0.75127000  1
  H  H190  1  0.16063000  0.54172000  0.68620000  1
  H  H191  1  0.14499000  0.66856000  0.72380000  1
  H  H192  1  0.10169000  0.71357000  0.67660000  1
  H  H193  1  0.15754000  0.63706000  0.58733000  1
  H  H194  1  0.19399000  0.58948000  0.63485000  1
  H  H195  1  0.90809000  0.16227000  0.32483000  1
  H  H196  1  0.85254000  0.13088000  0.27260000  1
  H  H197  1  0.75230000  0.06655000  0.35370000  1
  H  H198  1  0.80803000  0.09760000  0.40589000  1
  H  H199  1  0.73887000  0.13463000  0.25127000  1
  H  H200  1  0.66063000  0.04172000  0.18620000  1
  H  H201  1  0.64499000  0.16856000  0.22380000  1
  H  H202  1  0.60169000  0.21357000  0.17660000  1
  H  H203  1  0.65754000  0.13706000  0.08733000  1
  H  H204  1  0.69399000  0.08948000  0.13485000  1
  H  H205  1  0.81866000  0.01220000  0.33756000  1
  H  H206  1  0.84307000  0.97124000  0.31487000  1
  H  H207  1  0.86105000  0.01656000  0.29815000  1
  C  C208  1  0.60156000  0.65361000  0.90359000  1
  C  C209  1  0.63751000  0.63306000  0.87058000  1
  C  C210  1  0.62390000  0.64280000  0.83083000  1
  C  C211  1  0.65700000  0.62411000  0.79979000  1
  C  C212  1  0.70360000  0.59581000  0.80798000  1
  C  C213  1  0.71600000  0.58619000  0.84755000  1
  C  C214  1  0.68290000  0.60474000  0.87871000  1
  C  C215  1  0.73970000  0.57799000  0.77388000  1
  C  C216  1  0.76720000  0.60557000  0.74693000  1
  C  C217  1  0.80330000  0.59335000  0.71368000  1
  C  C218  1  0.81440000  0.55103000  0.70806000  1
  C  C219  1  0.78850000  0.52228000  0.73504000  1
  C  C220  1  0.74990000  0.53546000  0.76719000  1
  C  C221  1  0.82630000  0.62415000  0.68444000  1
  C  C222  1  0.85340000  0.66151000  0.69599000  1
  C  C223  1  0.87810000  0.68876000  0.66794000  1
  C  C224  1  0.87340000  0.67988000  0.62731000  1
  C  C225  1  0.84600000  0.64324000  0.61525000  1
  C  C226  1  0.82350000  0.61518000  0.64357000  1
  C  C227  1  0.90120000  0.70793000  0.59628000  1
  C  C228  1  0.10156000  0.15361000  0.40359000  1
  C  C229  1  0.13751000  0.13306000  0.37058000  1
  C  C230  1  0.12390000  0.14280000  0.33083000  1
  C  C231  1  0.15700000  0.12411000  0.29979000  1
  C  C232  1  0.20360000  0.09581000  0.30798000  1
  C  C233  1  0.21600000  0.08619000  0.34755000  1
  C  C234  1  0.18290000  0.10474000  0.37871000  1
  C  C235  1  0.23970000  0.07799000  0.27388000  1
  C  C236  1  0.26720000  0.10557000  0.24693000  1
  C  C237  1  0.30330000  0.09335000  0.21368000  1
  C  C238  1  0.31440000  0.05103000  0.20806000  1
  C  C239  1  0.28850000  0.02228000  0.23504000  1
  C  C240  1  0.24990000  0.03546000  0.26719000  1
  C  C241  1  0.32630000  0.12415000  0.18444000  1
  C  C242  1  0.35340000  0.16151000  0.19599000  1
  C  C243  1  0.37810000  0.18876000  0.16794000  1
  C  C244  1  0.37340000  0.17988000  0.12731000  1
  C  C245  1  0.34600000  0.14324000  0.11525000  1
  C  C246  1  0.32350000  0.11518000  0.14357000  1
  C  C247  1  0.40120000  0.20793000  0.09628000  1
  C  C248  1  0.39844000  0.65361000  0.09641000  1
  C  C249  1  0.36249000  0.63306000  0.12942000  1
  C  C250  1  0.37610000  0.64280000  0.16917000  1
  C  C251  1  0.34300000  0.62411000  0.20021000  1
  C  C252  1  0.29640000  0.59581000  0.19202000  1
  C  C253  1  0.28400000  0.58619000  0.15245000  1
  C  C254  1  0.31710000  0.60474000  0.12129000  1
  C  C255  1  0.26030000  0.57799000  0.22612000  1
  C  C256  1  0.23280000  0.60557000  0.25307000  1
  C  C257  1  0.19670000  0.59335000  0.28632000  1
  C  C258  1  0.18560000  0.55103000  0.29194000  1
  C  C259  1  0.21150000  0.52228000  0.26496000  1
  C  C260  1  0.25010000  0.53546000  0.23281000  1
  C  C261  1  0.17370000  0.62415000  0.31556000  1
  C  C262  1  0.14660000  0.66151000  0.30401000  1
  C  C263  1  0.12190000  0.68876000  0.33206000  1
  C  C264  1  0.12660000  0.67988000  0.37269000  1
  C  C265  1  0.15400000  0.64324000  0.38475000  1
  C  C266  1  0.17650000  0.61518000  0.35643000  1
  C  C267  1  0.09880000  0.70793000  0.40372000  1
  C  C268  1  0.89844000  0.15361000  0.59641000  1
  C  C269  1  0.86249000  0.13306000  0.62942000  1
  C  C270  1  0.87610000  0.14280000  0.66917000  1
  C  C271  1  0.84300000  0.12411000  0.70021000  1
  C  C272  1  0.79640000  0.09581000  0.69202000  1
  C  C273  1  0.78400000  0.08619000  0.65245000  1
  C  C274  1  0.81710000  0.10474000  0.62129000  1
  C  C275  1  0.76030000  0.07799000  0.72612000  1
  C  C276  1  0.73280000  0.10557000  0.75307000  1
  C  C277  1  0.69670000  0.09335000  0.78632000  1
  C  C278  1  0.68560000  0.05103000  0.79194000  1
  C  C279  1  0.71150000  0.02228000  0.76496000  1
  C  C280  1  0.75010000  0.03546000  0.73281000  1
  C  C281  1  0.67370000  0.12415000  0.81556000  1
  C  C282  1  0.64660000  0.16151000  0.80401000  1
  C  C283  1  0.62190000  0.18876000  0.83206000  1
  C  C284  1  0.62660000  0.17988000  0.87269000  1
  C  C285  1  0.65400000  0.14324000  0.88475000  1
  C  C286  1  0.67650000  0.11518000  0.85643000  1
  C  C287  1  0.59880000  0.20793000  0.90372000  1
  C  C288  1  0.39844000  0.34639000  0.90359000  1
  C  C289  1  0.36249000  0.36694000  0.87058000  1
  C  C290  1  0.37610000  0.35720000  0.83083000  1
  C  C291  1  0.34300000  0.37589000  0.79979000  1
  C  C292  1  0.29640000  0.40419000  0.80798000  1
  C  C293  1  0.28400000  0.41381000  0.84755000  1
  C  C294  1  0.31710000  0.39526000  0.87871000  1
  C  C295  1  0.26030000  0.42201000  0.77388000  1
  C  C296  1  0.23280000  0.39443000  0.74693000  1
  C  C297  1  0.19670000  0.40665000  0.71368000  1
  C  C298  1  0.18560000  0.44897000  0.70806000  1
  C  C299  1  0.21150000  0.47772000  0.73504000  1
  C  C300  1  0.25010000  0.46454000  0.76719000  1
  C  C301  1  0.17370000  0.37585000  0.68444000  1
  C  C302  1  0.14660000  0.33849000  0.69599000  1
  C  C303  1  0.12190000  0.31124000  0.66794000  1
  C  C304  1  0.12660000  0.32012000  0.62731000  1
  C  C305  1  0.15400000  0.35676000  0.61525000  1
  C  C306  1  0.17650000  0.38482000  0.64357000  1
  C  C307  1  0.09880000  0.29207000  0.59628000  1
  C  C308  1  0.89844000  0.84639000  0.40359000  1
  C  C309  1  0.86249000  0.86694000  0.37058000  1
  C  C310  1  0.87610000  0.85720000  0.33083000  1
  C  C311  1  0.84300000  0.87589000  0.29979000  1
  C  C312  1  0.79640000  0.90419000  0.30798000  1
  C  C313  1  0.78400000  0.91381000  0.34755000  1
  C  C314  1  0.81710000  0.89526000  0.37871000  1
  C  C315  1  0.76030000  0.92201000  0.27388000  1
  C  C316  1  0.73280000  0.89443000  0.24693000  1
  C  C317  1  0.69670000  0.90665000  0.21368000  1
  C  C318  1  0.68560000  0.94897000  0.20806000  1
  C  C319  1  0.71150000  0.97772000  0.23504000  1
  C  C320  1  0.75010000  0.96454000  0.26719000  1
  C  C321  1  0.67370000  0.87585000  0.18444000  1
  C  C322  1  0.64660000  0.83849000  0.19599000  1
  C  C323  1  0.62190000  0.81124000  0.16794000  1
  C  C324  1  0.62660000  0.82012000  0.12731000  1
  C  C325  1  0.65400000  0.85676000  0.11525000  1
  C  C326  1  0.67650000  0.88482000  0.14357000  1
  C  C327  1  0.59880000  0.79207000  0.09628000  1
  C  C328  1  0.60156000  0.34639000  0.09641000  1
  C  C329  1  0.63751000  0.36694000  0.12942000  1
  C  C330  1  0.62390000  0.35720000  0.16917000  1
  C  C331  1  0.65700000  0.37589000  0.20021000  1
  C  C332  1  0.70360000  0.40419000  0.19202000  1
  C  C333  1  0.71600000  0.41381000  0.15245000  1
  C  C334  1  0.68290000  0.39526000  0.12129000  1
  C  C335  1  0.73970000  0.42201000  0.22612000  1
  C  C336  1  0.76720000  0.39443000  0.25307000  1
  C  C337  1  0.80330000  0.40665000  0.28632000  1
  C  C338  1  0.81440000  0.44897000  0.29194000  1
  C  C339  1  0.78850000  0.47772000  0.26496000  1
  C  C340  1  0.74990000  0.46454000  0.23281000  1
  C  C341  1  0.82630000  0.37585000  0.31556000  1
  C  C342  1  0.85340000  0.33849000  0.30401000  1
  C  C343  1  0.87810000  0.31124000  0.33206000  1
  C  C344  1  0.87340000  0.32012000  0.37269000  1
  C  C345  1  0.84600000  0.35676000  0.38475000  1
  C  C346  1  0.82350000  0.38482000  0.35643000  1
  C  C347  1  0.90120000  0.29207000  0.40372000  1
  C  C348  1  0.10156000  0.84639000  0.59641000  1
  C  C349  1  0.13751000  0.86694000  0.62942000  1
  C  C350  1  0.12390000  0.85720000  0.66917000  1
  C  C351  1  0.15700000  0.87589000  0.70021000  1
  C  C352  1  0.20360000  0.90419000  0.69202000  1
  C  C353  1  0.21600000  0.91381000  0.65245000  1
  C  C354  1  0.18290000  0.89526000  0.62129000  1
  C  C355  1  0.23970000  0.92201000  0.72612000  1
  C  C356  1  0.26720000  0.89443000  0.75307000  1
  C  C357  1  0.30330000  0.90665000  0.78632000  1
  C  C358  1  0.31440000  0.94897000  0.79194000  1
  C  C359  1  0.28850000  0.97772000  0.76496000  1
  C  C360  1  0.24990000  0.96454000  0.73281000  1
  C  C361  1  0.32630000  0.87585000  0.81556000  1
  C  C362  1  0.35340000  0.83849000  0.80401000  1
  C  C363  1  0.37810000  0.81124000  0.83206000  1
  C  C364  1  0.37340000  0.82012000  0.87269000  1
  C  C365  1  0.34600000  0.85676000  0.88475000  1
  C  C366  1  0.32350000  0.88482000  0.85643000  1
  C  C367  1  0.40120000  0.79207000  0.90372000  1
  C  C368  1  0.39844000  0.34639000  0.09641000  1
  C  C369  1  0.36249000  0.36694000  0.12942000  1
  C  C370  1  0.37610000  0.35720000  0.16917000  1
  C  C371  1  0.34300000  0.37589000  0.20021000  1
  C  C372  1  0.29640000  0.40419000  0.19202000  1
  C  C373  1  0.28400000  0.41381000  0.15245000  1
  C  C374  1  0.31710000  0.39526000  0.12129000  1
  C  C375  1  0.26030000  0.42201000  0.22612000  1
  C  C376  1  0.23280000  0.39443000  0.25307000  1
  C  C377  1  0.19670000  0.40665000  0.28632000  1
  C  C378  1  0.18560000  0.44897000  0.29194000  1
  C  C379  1  0.21150000  0.47772000  0.26496000  1
  C  C380  1  0.25010000  0.46454000  0.23281000  1
  C  C381  1  0.17370000  0.37585000  0.31556000  1
  C  C382  1  0.14660000  0.33849000  0.30401000  1
  C  C383  1  0.12190000  0.31124000  0.33206000  1
  C  C384  1  0.12660000  0.32012000  0.37269000  1
  C  C385  1  0.15400000  0.35676000  0.38475000  1
  C  C386  1  0.17650000  0.38482000  0.35643000  1
  C  C387  1  0.09880000  0.29207000  0.40372000  1
  C  C388  1  0.89844000  0.84639000  0.59641000  1
  C  C389  1  0.86249000  0.86694000  0.62942000  1
  C  C390  1  0.87610000  0.85720000  0.66917000  1
  C  C391  1  0.84300000  0.87589000  0.70021000  1
  C  C392  1  0.79640000  0.90419000  0.69202000  1
  C  C393  1  0.78400000  0.91381000  0.65245000  1
  C  C394  1  0.81710000  0.89526000  0.62129000  1
  C  C395  1  0.76030000  0.92201000  0.72612000  1
  C  C396  1  0.73280000  0.89443000  0.75307000  1
  C  C397  1  0.69670000  0.90665000  0.78632000  1
  C  C398  1  0.68560000  0.94897000  0.79194000  1
  C  C399  1  0.71150000  0.97772000  0.76496000  1
  C  C400  1  0.75010000  0.96454000  0.73281000  1
  C  C401  1  0.67370000  0.87585000  0.81556000  1
  C  C402  1  0.64660000  0.83849000  0.80401000  1
  C  C403  1  0.62190000  0.81124000  0.83206000  1
  C  C404  1  0.62660000  0.82012000  0.87269000  1
  C  C405  1  0.65400000  0.85676000  0.88475000  1
  C  C406  1  0.67650000  0.88482000  0.85643000  1
  C  C407  1  0.59880000  0.79207000  0.90372000  1
  C  C408  1  0.60156000  0.34639000  0.90359000  1
  C  C409  1  0.63751000  0.36694000  0.87058000  1
  C  C410  1  0.62390000  0.35720000  0.83083000  1
  C  C411  1  0.65700000  0.37589000  0.79979000  1
  C  C412  1  0.70360000  0.40419000  0.80798000  1
  C  C413  1  0.71600000  0.41381000  0.84755000  1
  C  C414  1  0.68290000  0.39526000  0.87871000  1
  C  C415  1  0.73970000  0.42201000  0.77388000  1
  C  C416  1  0.76720000  0.39443000  0.74693000  1
  C  C417  1  0.80330000  0.40665000  0.71368000  1
  C  C418  1  0.81440000  0.44897000  0.70806000  1
  C  C419  1  0.78850000  0.47772000  0.73504000  1
  C  C420  1  0.74990000  0.46454000  0.76719000  1
  C  C421  1  0.82630000  0.37585000  0.68444000  1
  C  C422  1  0.85340000  0.33849000  0.69599000  1
  C  C423  1  0.87810000  0.31124000  0.66794000  1
  C  C424  1  0.87340000  0.32012000  0.62731000  1
  C  C425  1  0.84600000  0.35676000  0.61525000  1
  C  C426  1  0.82350000  0.38482000  0.64357000  1
  C  C427  1  0.90120000  0.29207000  0.59628000  1
  C  C428  1  0.10156000  0.84639000  0.40359000  1
  C  C429  1  0.13751000  0.86694000  0.37058000  1
  C  C430  1  0.12390000  0.85720000  0.33083000  1
  C  C431  1  0.15700000  0.87589000  0.29979000  1
  C  C432  1  0.20360000  0.90419000  0.30798000  1
  C  C433  1  0.21600000  0.91381000  0.34755000  1
  C  C434  1  0.18290000  0.89526000  0.37871000  1
  C  C435  1  0.23970000  0.92201000  0.27388000  1
  C  C436  1  0.26720000  0.89443000  0.24693000  1
  C  C437  1  0.30330000  0.90665000  0.21368000  1
  C  C438  1  0.31440000  0.94897000  0.20806000  1
  C  C439  1  0.28850000  0.97772000  0.23504000  1
  C  C440  1  0.24990000  0.96454000  0.26719000  1
  C  C441  1  0.32630000  0.87585000  0.18444000  1
  C  C442  1  0.35340000  0.83849000  0.19599000  1
  C  C443  1  0.37810000  0.81124000  0.16794000  1
  C  C444  1  0.37340000  0.82012000  0.12731000  1
  C  C445  1  0.34600000  0.85676000  0.11525000  1
  C  C446  1  0.32350000  0.88482000  0.14357000  1
  C  C447  1  0.40120000  0.79207000  0.09628000  1
  C  C448  1  0.60156000  0.65361000  0.09641000  1
  C  C449  1  0.63751000  0.63306000  0.12942000  1
  C  C450  1  0.62390000  0.64280000  0.16917000  1
  C  C451  1  0.65700000  0.62411000  0.20021000  1
  C  C452  1  0.70360000  0.59581000  0.19202000  1
  C  C453  1  0.71600000  0.58619000  0.15245000  1
  C  C454  1  0.68290000  0.60474000  0.12129000  1
  C  C455  1  0.73970000  0.57799000  0.22612000  1
  C  C456  1  0.76720000  0.60557000  0.25307000  1
  C  C457  1  0.80330000  0.59335000  0.28632000  1
  C  C458  1  0.81440000  0.55103000  0.29194000  1
  C  C459  1  0.78850000  0.52228000  0.26496000  1
  C  C460  1  0.74990000  0.53546000  0.23281000  1
  C  C461  1  0.82630000  0.62415000  0.31556000  1
  C  C462  1  0.85340000  0.66151000  0.30401000  1
  C  C463  1  0.87810000  0.68876000  0.33206000  1
  C  C464  1  0.87340000  0.67988000  0.37269000  1
  C  C465  1  0.84600000  0.64324000  0.38475000  1
  C  C466  1  0.82350000  0.61518000  0.35643000  1
  C  C467  1  0.90120000  0.70793000  0.40372000  1
  C  C468  1  0.10156000  0.15361000  0.59641000  1
  C  C469  1  0.13751000  0.13306000  0.62942000  1
  C  C470  1  0.12390000  0.14280000  0.66917000  1
  C  C471  1  0.15700000  0.12411000  0.70021000  1
  C  C472  1  0.20360000  0.09581000  0.69202000  1
  C  C473  1  0.21600000  0.08619000  0.65245000  1
  C  C474  1  0.18290000  0.10474000  0.62129000  1
  C  C475  1  0.23970000  0.07799000  0.72612000  1
  C  C476  1  0.26720000  0.10557000  0.75307000  1
  C  C477  1  0.30330000  0.09335000  0.78632000  1
  C  C478  1  0.31440000  0.05103000  0.79194000  1
  C  C479  1  0.28850000  0.02228000  0.76496000  1
  C  C480  1  0.24990000  0.03546000  0.73281000  1
  C  C481  1  0.32630000  0.12415000  0.81556000  1
  C  C482  1  0.35340000  0.16151000  0.80401000  1
  C  C483  1  0.37810000  0.18876000  0.83206000  1
  C  C484  1  0.37340000  0.17988000  0.87269000  1
  C  C485  1  0.34600000  0.14324000  0.88475000  1
  C  C486  1  0.32350000  0.11518000  0.85643000  1
  C  C487  1  0.40120000  0.20793000  0.90372000  1
  C  C488  1  0.39844000  0.65361000  0.90359000  1
  C  C489  1  0.36249000  0.63306000  0.87058000  1
  C  C490  1  0.37610000  0.64280000  0.83083000  1
  C  C491  1  0.34300000  0.62411000  0.79979000  1
  C  C492  1  0.29640000  0.59581000  0.80798000  1
  C  C493  1  0.28400000  0.58619000  0.84755000  1
  C  C494  1  0.31710000  0.60474000  0.87871000  1
  C  C495  1  0.26030000  0.57799000  0.77388000  1
  C  C496  1  0.23280000  0.60557000  0.74693000  1
  C  C497  1  0.19670000  0.59335000  0.71368000  1
  C  C498  1  0.18560000  0.55103000  0.70806000  1
  C  C499  1  0.21150000  0.52228000  0.73504000  1
  C  C500  1  0.25010000  0.53546000  0.76719000  1
  C  C501  1  0.17370000  0.62415000  0.68444000  1
  C  C502  1  0.14660000  0.66151000  0.69599000  1
  C  C503  1  0.12190000  0.68876000  0.66794000  1
  C  C504  1  0.12660000  0.67988000  0.62731000  1
  C  C505  1  0.15400000  0.64324000  0.61525000  1
  C  C506  1  0.17650000  0.61518000  0.64357000  1
  C  C507  1  0.09880000  0.70793000  0.59628000  1
  C  C508  1  0.89844000  0.15361000  0.40359000  1
  C  C509  1  0.86249000  0.13306000  0.37058000  1
  C  C510  1  0.87610000  0.14280000  0.33083000  1
  C  C511  1  0.84300000  0.12411000  0.29979000  1
  C  C512  1  0.79640000  0.09581000  0.30798000  1
  C  C513  1  0.78400000  0.08619000  0.34755000  1
  C  C514  1  0.81710000  0.10474000  0.37871000  1
  C  C515  1  0.76030000  0.07799000  0.27388000  1
  C  C516  1  0.73280000  0.10557000  0.24693000  1
  C  C517  1  0.69670000  0.09335000  0.21368000  1
  C  C518  1  0.68560000  0.05103000  0.20806000  1
  C  C519  1  0.71150000  0.02228000  0.23504000  1
  C  C520  1  0.75010000  0.03546000  0.26719000  1
  C  C521  1  0.67370000  0.12415000  0.18444000  1
  C  C522  1  0.64660000  0.16151000  0.19599000  1
  C  C523  1  0.62190000  0.18876000  0.16794000  1
  C  C524  1  0.62660000  0.17988000  0.12731000  1
  C  C525  1  0.65400000  0.14324000  0.11525000  1
  C  C526  1  0.67650000  0.11518000  0.14357000  1
  C  C527  1  0.59880000  0.20793000  0.09628000  1
  C  C528  1  0.67150000  0.50000000  0.81120000  1
  C  C529  1  0.17150000  0.00000000  0.31120000  1
  C  C530  1  0.32850000  0.50000000  0.18880000  1
  C  C531  1  0.82850000  0.00000000  0.68880000  1
  C  C532  1  0.32850000  0.50000000  0.81120000  1
  C  C533  1  0.82850000  0.00000000  0.31120000  1
  C  C534  1  0.67150000  0.50000000  0.18880000  1
  C  C535  1  0.17150000  0.00000000  0.68880000  1
  N  N536  1  0.72680000  0.50000000  0.78614000  1
  N  N537  1  0.22680000  0.00000000  0.28614000  1
  N  N538  1  0.27320000  0.50000000  0.21386000  1
  N  N539  1  0.77320000  1.00000000  0.71386000  1
  N  N540  1  0.27320000  0.50000000  0.78614000  1
  N  N541  1  0.77320000  0.00000000  0.28614000  1
  N  N542  1  0.72680000  0.50000000  0.21386000  1
  N  N543  1  0.22680000  0.00000000  0.71386000  1
  O  O544  1  0.61428000  0.64379000  0.93948000  1
  O  O545  1  0.56198000  0.68048000  0.89259000  1
  O  O546  1  0.88604000  0.70055000  0.56004000  1
  O  O547  1  0.93720000  0.73596000  0.60804000  1
  O  O548  1  0.58109000  0.72229000  0.03608000  1
  O  O549  1  0.11428000  0.14379000  0.43948000  1
  O  O550  1  0.06198000  0.18048000  0.39259000  1
  O  O551  1  0.38604000  0.20055000  0.06004000  1
  O  O552  1  0.43720000  0.23596000  0.10804000  1
  O  O553  1  0.08109000  0.22229000  0.53608000  1
  O  O554  1  0.38572000  0.64379000  0.06052000  1
  O  O555  1  0.43802000  0.68048000  0.10741000  1
  O  O556  1  0.11396000  0.70055000  0.43996000  1
  O  O557  1  0.06280000  0.73596000  0.39196000  1
  O  O558  1  0.41891000  0.72229000  0.96392000  1
  O  O559  1  0.88572000  0.14379000  0.56052000  1
  O  O560  1  0.93802000  0.18048000  0.60741000  1
  O  O561  1  0.61396000  0.20055000  0.93996000  1
  O  O562  1  0.56280000  0.23596000  0.89196000  1
  O  O563  1  0.91891000  0.22229000  0.46392000  1
  O  O564  1  0.38572000  0.35621000  0.93948000  1
  O  O565  1  0.43802000  0.31952000  0.89259000  1
  O  O566  1  0.11396000  0.29945000  0.56004000  1
  O  O567  1  0.06280000  0.26404000  0.60804000  1
  O  O568  1  0.41891000  0.27771000  0.03608000  1
  O  O569  1  0.88572000  0.85621000  0.43948000  1
  O  O570  1  0.93802000  0.81952000  0.39259000  1
  O  O571  1  0.61396000  0.79945000  0.06004000  1
  O  O572  1  0.56280000  0.76404000  0.10804000  1
  O  O573  1  0.91891000  0.77771000  0.53608000  1
  O  O574  1  0.61428000  0.35621000  0.06052000  1
  O  O575  1  0.56198000  0.31952000  0.10741000  1
  O  O576  1  0.88604000  0.29945000  0.43996000  1
  O  O577  1  0.93720000  0.26404000  0.39196000  1
  O  O578  1  0.58109000  0.27771000  0.96392000  1
  O  O579  1  0.11428000  0.85621000  0.56052000  1
  O  O580  1  0.06198000  0.81952000  0.60741000  1
  O  O581  1  0.38604000  0.79945000  0.93996000  1
  O  O582  1  0.43720000  0.76404000  0.89196000  1
  O  O583  1  0.08109000  0.77771000  0.46392000  1
  O  O584  1  0.38572000  0.35621000  0.06052000  1
  O  O585  1  0.43802000  0.31952000  0.10741000  1
  O  O586  1  0.11396000  0.29945000  0.43996000  1
  O  O587  1  0.06280000  0.26404000  0.39196000  1
  O  O588  1  0.41891000  0.27771000  0.96392000  1
  O  O589  1  0.88572000  0.85621000  0.56052000  1
  O  O590  1  0.93802000  0.81952000  0.60741000  1
  O  O591  1  0.61396000  0.79945000  0.93996000  1
  O  O592  1  0.56280000  0.76404000  0.89196000  1
  O  O593  1  0.91891000  0.77771000  0.46392000  1
  O  O594  1  0.61428000  0.35621000  0.93948000  1
  O  O595  1  0.56198000  0.31952000  0.89259000  1
  O  O596  1  0.88604000  0.29945000  0.56004000  1
  O  O597  1  0.93720000  0.26404000  0.60804000  1
  O  O598  1  0.58109000  0.27771000  0.03608000  1
  O  O599  1  0.11428000  0.85621000  0.43948000  1
  O  O600  1  0.06198000  0.81952000  0.39259000  1
  O  O601  1  0.38604000  0.79945000  0.06004000  1
  O  O602  1  0.43720000  0.76404000  0.10804000  1
  O  O603  1  0.08109000  0.77771000  0.53608000  1
  O  O604  1  0.61428000  0.64379000  0.06052000  1
  O  O605  1  0.56198000  0.68048000  0.10741000  1
  O  O606  1  0.88604000  0.70055000  0.43996000  1
  O  O607  1  0.93720000  0.73596000  0.39196000  1
  O  O608  1  0.58109000  0.72229000  0.96392000  1
  O  O609  1  0.11428000  0.14379000  0.56052000  1
  O  O610  1  0.06198000  0.18048000  0.60741000  1
  O  O611  1  0.38604000  0.20055000  0.93996000  1
  O  O612  1  0.43720000  0.23596000  0.89196000  1
  O  O613  1  0.08109000  0.22229000  0.46392000  1
  O  O614  1  0.38572000  0.64379000  0.93948000  1
  O  O615  1  0.43802000  0.68048000  0.89259000  1
  O  O616  1  0.11396000  0.70055000  0.56004000  1
  O  O617  1  0.06280000  0.73596000  0.60804000  1
  O  O618  1  0.41891000  0.72229000  0.03608000  1
  O  O619  1  0.88572000  0.14379000  0.43948000  1
  O  O620  1  0.93802000  0.18048000  0.39259000  1
  O  O621  1  0.61396000  0.20055000  0.06004000  1
  O  O622  1  0.56280000  0.23596000  0.10804000  1
  O  O623  1  0.91891000  0.22229000  0.53608000  1
  O  O624  1  0.50000000  0.66753000  0.03641000  1
  O  O625  1  0.50000000  0.77659000  0.96385000  1
  O  O626  1  1.00000000  0.16753000  0.53641000  1
  O  O627  1  0.00000000  0.27659000  0.46385000  1
  O  O628  1  0.50000000  0.66753000  0.96359000  1
  O  O629  1  0.50000000  0.77659000  0.03615000  1
  O  O630  1  1.00000000  0.16753000  0.46359000  1
  O  O631  1  0.00000000  0.27659000  0.53615000  1
  O  O632  1  0.50000000  0.33247000  0.03641000  1
  O  O633  1  0.50000000  0.22341000  0.96385000  1
  O  O634  1  1.00000000  0.83247000  0.53641000  1
  O  O635  1  0.00000000  0.72341000  0.46385000  1
  O  O636  1  0.50000000  0.33247000  0.96359000  1
  O  O637  1  0.50000000  0.22341000  0.03615000  1
  O  O638  1  1.00000000  0.83247000  0.46359000  1
  O  O639  1  0.00000000  0.72341000  0.53615000  1
