# generated using pymatgen
data_Zr3H21C40NO12
_symmetry_space_group_name_H-M   'P 1'
_cell_length_a   22.24900000
_cell_length_b   25.24424429
_cell_length_c   25.24424429
_cell_angle_alpha   75.88104446
_cell_angle_beta   63.85306186
_cell_angle_gamma   63.85306186
_symmetry_Int_Tables_number   1
_chemical_formula_structural   Zr3H21C40NO12
_chemical_formula_sum   'Zr12 H84 C160 N4 O48'
_cell_volume   11403.45932197
_cell_formula_units_Z   4
loop_
 _symmetry_equiv_pos_site_id
 _symmetry_equiv_pos_as_xyz
  1  'x, y, z'
loop_
 _atom_site_type_symbol
 _atom_site_label
 _atom_site_symmetry_multiplicity
 _atom_site_fract_x
 _atom_site_fract_y
 _atom_site_fract_z
 _atom_site_occupancy
  C  C0  1  0.98904000  0.74776000  0.99216000  1
  C  C1  1  0.93500000  0.78420000  0.97100000  1
  C  C2  1  0.99591000  0.76399000  0.04159000  1
  C  C3  1  0.97581000  0.71319000  0.90139000  1
  C  C4  1  0.02918000  0.67632000  0.92272000  1
  C  C5  1  0.94070000  0.52830000  0.86390000  1
  C  C6  1  0.03746000  0.69294000  0.96714000  1
  C  C7  1  0.92859000  0.76861000  0.92581000  1
  C  C8  1  0.97950000  0.55380000  0.81380000  1
  C  C9  1  0.96291000  0.70994000  0.75644000  1
  C  C10  1  0.99513000  0.43737000  0.81557000  1
  C  C11  1  0.96402000  0.72958000  0.80338000  1
  C  C12  1  0.02640000  0.51950000  0.76470000  1
  C  C13  1  0.96661000  0.65259000  0.76019000  1
  C  C14  1  0.94750000  0.47040000  0.86540000  1
  C  C15  1  0.97230000  0.63760000  0.85580000  1
  C  C16  1  0.97240000  0.61570000  0.81010000  1
  C  C17  1  0.96980000  0.69400000  0.85340000  1
  C  C18  1  0.03430000  0.46310000  0.76530000  1
  C  C19  1  0.00011000  0.37689000  0.81489000  1
  C  C20  1  0.27104000  0.99216000  0.74776000  1
  C  C21  1  0.30980000  0.97100000  0.78420000  1
  C  C22  1  0.19851000  0.04159000  0.76399000  1
  C  C23  1  0.40961000  0.90139000  0.71319000  1
  C  C24  1  0.37178000  0.92272000  0.67632000  1
  C  C25  1  0.66710000  0.86390000  0.52830000  1
  C  C26  1  0.30246000  0.96714000  0.69294000  1
  C  C27  1  0.37699000  0.92581000  0.76861000  1
  C  C28  1  0.65290000  0.81380000  0.55380000  1
  C  C29  1  0.57071000  0.75644000  0.70994000  1
  C  C30  1  0.75193000  0.81557000  0.43737000  1
  C  C31  1  0.50302000  0.80338000  0.72958000  1
  C  C32  1  0.68940000  0.76470000  0.51950000  1
  C  C33  1  0.62061000  0.76019000  0.65259000  1
  C  C34  1  0.71670000  0.86540000  0.47040000  1
  C  C35  1  0.53430000  0.85580000  0.63760000  1
  C  C36  1  0.60180000  0.81010000  0.61570000  1
  C  C37  1  0.48280000  0.85340000  0.69400000  1
  C  C38  1  0.73730000  0.76530000  0.46310000  1
  C  C39  1  0.80811000  0.81489000  0.37689000  1
  C  C40  1  0.72896000  0.25224000  0.00784000  1
  C  C41  1  0.69020000  0.21580000  0.02900000  1
  C  C42  1  0.80149000  0.23601000  0.95841000  1
  C  C43  1  0.59039000  0.28681000  0.09861000  1
  C  C44  1  0.62822000  0.32368000  0.07728000  1
  C  C45  1  0.33290000  0.47170000  0.13610000  1
  C  C46  1  0.69754000  0.30706000  0.03286000  1
  C  C47  1  0.62301000  0.23139000  0.07419000  1
  C  C48  1  0.34710000  0.44620000  0.18620000  1
  C  C49  1  0.42929000  0.29006000  0.24356000  1
  C  C50  1  0.24807000  0.56263000  0.18443000  1
  C  C51  1  0.49698000  0.27042000  0.19662000  1
  C  C52  1  0.31060000  0.48050000  0.23530000  1
  C  C53  1  0.37939000  0.34741000  0.23981000  1
  C  C54  1  0.28330000  0.52960000  0.13460000  1
  C  C55  1  0.46570000  0.36240000  0.14420000  1
  C  C56  1  0.39820000  0.38430000  0.18990000  1
  C  C57  1  0.51720000  0.30600000  0.14660000  1
  C  C58  1  0.26270000  0.53690000  0.23470000  1
  C  C59  1  0.19189000  0.62311000  0.18511000  1
  C  C60  1  0.01096000  0.00784000  0.25224000  1
  C  C61  1  0.06500000  0.02900000  0.21580000  1
  C  C62  1  0.00409000  0.95841000  0.23601000  1
  C  C63  1  0.02419000  0.09861000  0.28681000  1
  C  C64  1  0.97082000  0.07728000  0.32368000  1
  C  C65  1  0.05930000  0.13610000  0.47170000  1
  C  C66  1  0.96254000  0.03286000  0.30706000  1
  C  C67  1  0.07141000  0.07419000  0.23139000  1
  C  C68  1  0.02050000  0.18620000  0.44620000  1
  C  C69  1  0.03709000  0.24356000  0.29006000  1
  C  C70  1  0.00487000  0.18443000  0.56263000  1
  C  C71  1  0.03598000  0.19662000  0.27042000  1
  C  C72  1  0.97360000  0.23530000  0.48050000  1
  C  C73  1  0.03339000  0.23981000  0.34741000  1
  C  C74  1  0.05250000  0.13460000  0.52960000  1
  C  C75  1  0.02770000  0.14420000  0.36240000  1
  C  C76  1  0.02760000  0.18990000  0.38430000  1
  C  C77  1  0.03020000  0.14660000  0.30600000  1
  C  C78  1  0.96570000  0.23470000  0.53690000  1
  C  C79  1  0.99989000  0.18511000  0.62311000  1
  C  C80  1  0.01096000  0.25224000  0.00784000  1
  C  C81  1  0.06500000  0.21580000  0.02900000  1
  C  C82  1  0.00409000  0.23601000  0.95841000  1
  C  C83  1  0.02419000  0.28681000  0.09861000  1
  C  C84  1  0.97082000  0.32368000  0.07728000  1
  C  C85  1  0.05930000  0.47170000  0.13610000  1
  C  C86  1  0.96254000  0.30706000  0.03286000  1
  C  C87  1  0.07141000  0.23139000  0.07419000  1
  C  C88  1  0.02050000  0.44620000  0.18620000  1
  C  C89  1  0.03709000  0.29006000  0.24356000  1
  C  C90  1  0.00487000  0.56263000  0.18443000  1
  C  C91  1  0.03598000  0.27042000  0.19662000  1
  C  C92  1  0.97360000  0.48050000  0.23530000  1
  C  C93  1  0.03339000  0.34741000  0.23981000  1
  C  C94  1  0.05250000  0.52960000  0.13460000  1
  C  C95  1  0.02770000  0.36240000  0.14420000  1
  C  C96  1  0.02760000  0.38430000  0.18990000  1
  C  C97  1  0.03020000  0.30600000  0.14660000  1
  C  C98  1  0.96570000  0.53690000  0.23470000  1
  C  C99  1  0.99989000  0.62311000  0.18511000  1
  C  C100  1  0.72896000  0.00784000  0.25224000  1
  C  C101  1  0.69020000  0.02900000  0.21580000  1
  C  C102  1  0.80149000  0.95841000  0.23601000  1
  C  C103  1  0.59039000  0.09861000  0.28681000  1
  C  C104  1  0.62822000  0.07728000  0.32368000  1
  C  C105  1  0.33290000  0.13610000  0.47170000  1
  C  C106  1  0.69754000  0.03286000  0.30706000  1
  C  C107  1  0.62301000  0.07419000  0.23139000  1
  C  C108  1  0.34710000  0.18620000  0.44620000  1
  C  C109  1  0.42929000  0.24356000  0.29006000  1
  C  C110  1  0.24807000  0.18443000  0.56263000  1
  C  C111  1  0.49698000  0.19662000  0.27042000  1
  C  C112  1  0.31060000  0.23530000  0.48050000  1
  C  C113  1  0.37939000  0.23981000  0.34741000  1
  C  C114  1  0.28330000  0.13460000  0.52960000  1
  C  C115  1  0.46570000  0.14420000  0.36240000  1
  C  C116  1  0.39820000  0.18990000  0.38430000  1
  C  C117  1  0.51720000  0.14660000  0.30600000  1
  C  C118  1  0.26270000  0.23470000  0.53690000  1
  C  C119  1  0.19189000  0.18511000  0.62311000  1
  C  C120  1  0.27104000  0.74776000  0.99216000  1
  C  C121  1  0.30980000  0.78420000  0.97100000  1
  C  C122  1  0.19851000  0.76399000  0.04159000  1
  C  C123  1  0.40961000  0.71319000  0.90139000  1
  C  C124  1  0.37178000  0.67632000  0.92272000  1
  C  C125  1  0.66710000  0.52830000  0.86390000  1
  C  C126  1  0.30246000  0.69294000  0.96714000  1
  C  C127  1  0.37699000  0.76861000  0.92581000  1
  C  C128  1  0.65290000  0.55380000  0.81380000  1
  C  C129  1  0.57071000  0.70994000  0.75644000  1
  C  C130  1  0.75193000  0.43737000  0.81557000  1
  C  C131  1  0.50302000  0.72958000  0.80338000  1
  C  C132  1  0.68940000  0.51950000  0.76470000  1
  C  C133  1  0.62061000  0.65259000  0.76019000  1
  C  C134  1  0.71670000  0.47040000  0.86540000  1
  C  C135  1  0.53430000  0.63760000  0.85580000  1
  C  C136  1  0.60180000  0.61570000  0.81010000  1
  C  C137  1  0.48280000  0.69400000  0.85340000  1
  C  C138  1  0.73730000  0.46310000  0.76530000  1
  C  C139  1  0.80811000  0.37689000  0.81489000  1
  C  C140  1  0.98904000  0.99216000  0.74776000  1
  C  C141  1  0.93500000  0.97100000  0.78420000  1
  C  C142  1  0.99591000  0.04159000  0.76399000  1
  C  C143  1  0.97581000  0.90139000  0.71319000  1
  C  C144  1  0.02918000  0.92272000  0.67632000  1
  C  C145  1  0.94070000  0.86390000  0.52830000  1
  C  C146  1  0.03746000  0.96714000  0.69294000  1
  C  C147  1  0.92859000  0.92581000  0.76861000  1
  C  C148  1  0.97950000  0.81380000  0.55380000  1
  C  C149  1  0.96291000  0.75644000  0.70994000  1
  C  C150  1  0.99513000  0.81557000  0.43737000  1
  C  C151  1  0.96402000  0.80338000  0.72958000  1
  C  C152  1  0.02640000  0.76470000  0.51950000  1
  C  C153  1  0.96661000  0.76019000  0.65259000  1
  C  C154  1  0.94750000  0.86540000  0.47040000  1
  C  C155  1  0.97230000  0.85580000  0.63760000  1
  C  C156  1  0.97240000  0.81010000  0.61570000  1
  C  C157  1  0.96980000  0.85340000  0.69400000  1
  C  C158  1  0.03430000  0.76530000  0.46310000  1
  C  C159  1  0.00011000  0.81489000  0.37689000  1
  H  H160  1  0.90220000  0.82010000  0.98790000  1
  H  H161  1  0.06030000  0.63970000  0.90710000  1
  H  H162  1  0.90960000  0.54990000  0.89730000  1
  H  H163  1  0.07460000  0.66820000  0.98000000  1
  H  H164  1  0.89320000  0.79450000  0.91130000  1
  H  H165  1  0.05290000  0.53620000  0.73040000  1
  H  H166  1  0.96530000  0.63920000  0.72960000  1
  H  H167  1  0.92040000  0.45380000  0.89940000  1
  H  H168  1  0.97400000  0.61310000  0.88970000  1
  H  H169  1  0.06610000  0.44170000  0.73190000  1
  H  H170  1  0.93080000  0.81280000  0.81280000  1
  H  H171  1  0.28980000  0.98790000  0.82010000  1
  H  H172  1  0.39290000  0.90710000  0.63970000  1
  H  H173  1  0.64320000  0.89730000  0.54990000  1
  H  H174  1  0.27720000  0.98000000  0.66820000  1
  H  H175  1  0.40100000  0.91130000  0.79450000  1
  H  H176  1  0.68050000  0.73040000  0.53620000  1
  H  H177  1  0.66590000  0.72960000  0.63920000  1
  H  H178  1  0.72640000  0.89940000  0.45380000  1
  H  H179  1  0.52320000  0.88970000  0.61310000  1
  H  H180  1  0.76030000  0.73190000  0.44170000  1
  H  H181  1  0.44360000  0.81280000  0.81280000  1
  H  H182  1  0.71020000  0.17990000  0.01210000  1
  H  H183  1  0.60710000  0.36030000  0.09290000  1
  H  H184  1  0.35680000  0.45010000  0.10270000  1
  H  H185  1  0.72280000  0.33180000  0.02000000  1
  H  H186  1  0.59900000  0.20550000  0.08870000  1
  H  H187  1  0.31950000  0.46380000  0.26960000  1
  H  H188  1  0.33410000  0.36080000  0.27040000  1
  H  H189  1  0.27360000  0.54620000  0.10060000  1
  H  H190  1  0.47680000  0.38690000  0.11030000  1
  H  H191  1  0.23970000  0.55830000  0.26810000  1
  H  H192  1  0.55640000  0.18720000  0.18720000  1
  H  H193  1  0.09780000  0.01210000  0.17990000  1
  H  H194  1  0.93970000  0.09290000  0.36030000  1
  H  H195  1  0.09040000  0.10270000  0.45010000  1
  H  H196  1  0.92540000  0.02000000  0.33180000  1
  H  H197  1  0.10680000  0.08870000  0.20550000  1
  H  H198  1  0.94710000  0.26960000  0.46380000  1
  H  H199  1  0.03470000  0.27040000  0.36080000  1
  H  H200  1  0.07960000  0.10060000  0.54620000  1
  H  H201  1  0.02600000  0.11030000  0.38690000  1
  H  H202  1  0.93390000  0.26810000  0.55830000  1
  H  H203  1  0.06920000  0.18720000  0.18720000  1
  H  H204  1  0.09780000  0.17990000  0.01210000  1
  H  H205  1  0.93970000  0.36030000  0.09290000  1
  H  H206  1  0.09040000  0.45010000  0.10270000  1
  H  H207  1  0.92540000  0.33180000  0.02000000  1
  H  H208  1  0.10680000  0.20550000  0.08870000  1
  H  H209  1  0.94710000  0.46380000  0.26960000  1
  H  H210  1  0.03470000  0.36080000  0.27040000  1
  H  H211  1  0.07960000  0.54620000  0.10060000  1
  H  H212  1  0.02600000  0.38690000  0.11030000  1
  H  H213  1  0.93390000  0.55830000  0.26810000  1
  H  H214  1  0.71020000  0.01210000  0.17990000  1
  H  H215  1  0.60710000  0.09290000  0.36030000  1
  H  H216  1  0.35680000  0.10270000  0.45010000  1
  H  H217  1  0.72280000  0.02000000  0.33180000  1
  H  H218  1  0.59900000  0.08870000  0.20550000  1
  H  H219  1  0.31950000  0.26960000  0.46380000  1
  H  H220  1  0.33410000  0.27040000  0.36080000  1
  H  H221  1  0.27360000  0.10060000  0.54620000  1
  H  H222  1  0.47680000  0.11030000  0.38690000  1
  H  H223  1  0.23970000  0.26810000  0.55830000  1
  H  H224  1  0.28980000  0.82010000  0.98790000  1
  H  H225  1  0.39290000  0.63970000  0.90710000  1
  H  H226  1  0.64320000  0.54990000  0.89730000  1
  H  H227  1  0.27720000  0.66820000  0.98000000  1
  H  H228  1  0.40100000  0.79450000  0.91130000  1
  H  H229  1  0.68050000  0.53620000  0.73040000  1
  H  H230  1  0.66590000  0.63920000  0.72960000  1
  H  H231  1  0.72640000  0.45380000  0.89940000  1
  H  H232  1  0.52320000  0.61310000  0.88970000  1
  H  H233  1  0.76030000  0.44170000  0.73190000  1
  H  H234  1  0.90220000  0.98790000  0.82010000  1
  H  H235  1  0.06030000  0.90710000  0.63970000  1
  H  H236  1  0.90960000  0.89730000  0.54990000  1
  H  H237  1  0.07460000  0.98000000  0.66820000  1
  H  H238  1  0.89320000  0.91130000  0.79450000  1
  H  H239  1  0.05290000  0.73040000  0.53620000  1
  H  H240  1  0.96530000  0.72960000  0.63920000  1
  H  H241  1  0.92040000  0.89940000  0.45380000  1
  H  H242  1  0.97400000  0.88970000  0.61310000  1
  H  H243  1  0.06610000  0.73190000  0.44170000  1
  N  N244  1  0.96400000  0.78730000  0.78730000  1
  N  N245  1  0.46140000  0.78730000  0.78730000  1
  N  N246  1  0.53860000  0.21270000  0.21270000  1
  N  N247  1  0.03600000  0.21270000  0.21270000  1
  O  O248  1  0.04770000  0.72718000  0.05626000  1
  O  O249  1  0.95009000  0.81203000  0.06459000  1
  O  O250  1  0.11581000  0.75717000  0.16981000  1
  O  O251  1  0.95298000  0.35919000  0.85705000  1
  O  O252  1  0.05086000  0.34748000  0.77120000  1
  O  O253  1  0.03640000  0.81310000  0.11410000  1
  O  O254  1  0.03690000  0.70120000  0.22500000  1
  O  O255  1  0.16886000  0.05626000  0.72718000  1
  O  O256  1  0.17329000  0.06459000  0.81203000  1
  O  O257  1  0.95721000  0.16981000  0.75717000  1
  O  O258  1  0.83078000  0.85705000  0.35919000  1
  O  O259  1  0.83046000  0.77120000  0.34748000  1
  O  O260  1  0.03640000  0.11410000  0.81310000  1
  O  O261  1  0.03690000  0.22500000  0.70120000  1
  O  O262  1  0.83114000  0.27282000  0.94374000  1
  O  O263  1  0.82671000  0.18797000  0.93541000  1
  O  O264  1  0.04279000  0.24283000  0.83019000  1
  O  O265  1  0.16922000  0.64081000  0.14295000  1
  O  O266  1  0.16954000  0.65252000  0.22880000  1
  O  O267  1  0.96360000  0.18690000  0.88590000  1
  O  O268  1  0.96310000  0.29880000  0.77500000  1
  O  O269  1  0.95230000  0.94374000  0.27282000  1
  O  O270  1  0.04991000  0.93541000  0.18797000  1
  O  O271  1  0.88419000  0.83019000  0.24283000  1
  O  O272  1  0.04702000  0.14295000  0.64081000  1
  O  O273  1  0.94914000  0.22880000  0.65252000  1
  O  O274  1  0.96360000  0.88590000  0.18690000  1
  O  O275  1  0.96310000  0.77500000  0.29880000  1
  O  O276  1  0.95230000  0.27282000  0.94374000  1
  O  O277  1  0.04991000  0.18797000  0.93541000  1
  O  O278  1  0.88419000  0.24283000  0.83019000  1
  O  O279  1  0.04702000  0.64081000  0.14295000  1
  O  O280  1  0.94914000  0.65252000  0.22880000  1
  O  O281  1  0.83114000  0.94374000  0.27282000  1
  O  O282  1  0.82671000  0.93541000  0.18797000  1
  O  O283  1  0.04279000  0.83019000  0.24283000  1
  O  O284  1  0.16922000  0.14295000  0.64081000  1
  O  O285  1  0.16954000  0.22880000  0.65252000  1
  O  O286  1  0.16886000  0.72718000  0.05626000  1
  O  O287  1  0.17329000  0.81203000  0.06459000  1
  O  O288  1  0.95721000  0.75717000  0.16981000  1
  O  O289  1  0.83078000  0.35919000  0.85705000  1
  O  O290  1  0.83046000  0.34748000  0.77120000  1
  O  O291  1  0.04770000  0.05626000  0.72718000  1
  O  O292  1  0.95009000  0.06459000  0.81203000  1
  O  O293  1  0.11581000  0.16981000  0.75717000  1
  O  O294  1  0.95298000  0.85705000  0.35919000  1
  O  O295  1  0.05086000  0.77120000  0.34748000  1
  Zr  Zr296  1  0.07461000  0.71883000  0.13195000  1
  Zr  Zr297  1  0.07937000  0.85023000  0.14977000  1
  Zr  Zr298  1  0.07815000  0.73666000  0.26334000  1
  Zr  Zr299  1  0.07461000  0.13195000  0.71883000  1
  Zr  Zr300  1  0.92063000  0.14977000  0.85023000  1
  Zr  Zr301  1  0.92185000  0.26334000  0.73666000  1
  Zr  Zr302  1  0.92539000  0.28117000  0.86805000  1
  Zr  Zr303  1  0.07937000  0.14977000  0.85023000  1
  Zr  Zr304  1  0.07815000  0.26334000  0.73666000  1
  Zr  Zr305  1  0.92539000  0.86805000  0.28117000  1
  Zr  Zr306  1  0.92063000  0.85023000  0.14977000  1
  Zr  Zr307  1  0.92185000  0.73666000  0.26334000  1
