# generated using pymatgen
data_Zr3H21C40NO12
_symmetry_space_group_name_H-M   'P 1'
_cell_length_a   20.19400000
_cell_length_b   25.25177487
_cell_length_c   25.25177487
_cell_angle_alpha   77.61247088
_cell_angle_beta   66.43100577
_cell_angle_gamma   66.43100577
_symmetry_Int_Tables_number   1
_chemical_formula_structural   Zr3H21C40NO12
_chemical_formula_sum   'Zr12 H84 C160 N4 O48'
_cell_volume   10795.07628900
_cell_formula_units_Z   4
loop_
 _symmetry_equiv_pos_site_id
 _symmetry_equiv_pos_as_xyz
  1  'x, y, z'
loop_
 _atom_site_type_symbol
 _atom_site_label
 _atom_site_symmetry_multiplicity
 _atom_site_fract_x
 _atom_site_fract_y
 _atom_site_fract_z
 _atom_site_occupancy
  C  C0  1  0.99003000  0.61849000  0.19345000  1
  C  C1  1  0.99707000  0.55793000  0.19139000  1
  C  C2  1  0.95380000  0.53361000  0.24043000  1
  C  C3  1  0.96022000  0.47625000  0.24083000  1
  C  C4  1  0.00898000  0.44390000  0.19314000  1
  C  C5  1  0.04565000  0.46990000  0.14540000  1
  C  C6  1  0.04092000  0.52659000  0.14457000  1
  C  C7  1  0.01332000  0.38540000  0.19580000  1
  C  C8  1  0.01870000  0.34865000  0.24539000  1
  C  C9  1  0.02394000  0.29167000  0.24625000  1
  C  C10  1  0.02455000  0.26986000  0.20114000  1
  C  C11  1  0.02089000  0.30490000  0.14910000  1
  C  C12  1  0.01697000  0.36246000  0.14868000  1
  C  C13  1  0.02059000  0.28651000  0.09937000  1
  C  C14  1  0.07004000  0.23481000  0.07499000  1
  C  C15  1  0.06556000  0.22228000  0.02532000  1
  C  C16  1  0.01733000  0.25647000  0.99913000  1
  C  C17  1  0.96219000  0.30947000  0.02567000  1
  C  C18  1  0.96819333  0.32190000  0.07510000  1
  C  C19  1  0.01178000  0.24522000  0.94730000  1
  C  C20  1  0.19803000  0.19345000  0.61849000  1
  C  C21  1  0.25361000  0.19139000  0.55793000  1
  C  C22  1  0.27216000  0.24043000  0.53361000  1
  C  C23  1  0.32270000  0.24083000  0.47625000  1
  C  C24  1  0.35398000  0.19314000  0.44390000  1
  C  C25  1  0.33905000  0.14540000  0.46990000  1
  C  C26  1  0.28792000  0.14457000  0.52659000  1
  C  C27  1  0.40548000  0.19580000  0.38540000  1
  C  C28  1  0.38726000  0.24539000  0.34865000  1
  C  C29  1  0.43814000  0.24625000  0.29167000  1
  C  C30  1  0.50445000  0.20114000  0.26986000  1
  C  C31  1  0.52511000  0.14910000  0.30490000  1
  C  C32  1  0.47189000  0.14868000  0.36246000  1
  C  C33  1  0.59353000  0.09937000  0.28651000  1
  C  C34  1  0.62016000  0.07499000  0.23481000  1
  C  C35  1  0.68684000  0.02532000  0.22228000  1
  C  C36  1  0.72707000  0.99913000  0.25647000  1
  C  C37  1  0.70267000  0.02567000  0.30947000  1
  C  C38  1  0.63478000  0.07510000  0.32190000  1
  C  C39  1  0.79570000  0.94730000  0.24522000  1
  C  C40  1  0.80197000  0.38151000  0.80655000  1
  C  C41  1  0.74639000  0.44207000  0.80861000  1
  C  C42  1  0.72784000  0.46639000  0.75957000  1
  C  C43  1  0.67730000  0.52375000  0.75917000  1
  C  C44  1  0.64602000  0.55610000  0.80686000  1
  C  C45  1  0.66095000  0.53010000  0.85460000  1
  C  C46  1  0.71208000  0.47341000  0.85543000  1
  C  C47  1  0.59452000  0.61460000  0.80420000  1
  C  C48  1  0.61274000  0.65135000  0.75461000  1
  C  C49  1  0.56186000  0.70833000  0.75375000  1
  C  C50  1  0.49555000  0.73014000  0.79886000  1
  C  C51  1  0.47489000  0.69510000  0.85090000  1
  C  C52  1  0.52811000  0.63754000  0.85132000  1
  C  C53  1  0.40647000  0.71349000  0.90063000  1
  C  C54  1  0.37984000  0.76519000  0.92501000  1
  C  C55  1  0.31316000  0.77772000  0.97468000  1
  C  C56  1  0.27293000  0.74353000  0.00087000  1
  C  C57  1  0.29733000  0.69053000  0.97433000  1
  C  C58  1  0.36519333  0.67810000  0.92490000  1
  C  C59  1  0.20430000  0.75478000  0.05270000  1
  C  C60  1  0.00997000  0.80655000  0.38151000  1
  C  C61  1  0.00293000  0.80861000  0.44207000  1
  C  C62  1  0.04620000  0.75957000  0.46639000  1
  C  C63  1  0.03978000  0.75917000  0.52375000  1
  C  C64  1  0.99102000  0.80686000  0.55610000  1
  C  C65  1  0.95435000  0.85460000  0.53010000  1
  C  C66  1  0.95908000  0.85543000  0.47341000  1
  C  C67  1  0.98668000  0.80420000  0.61460000  1
  C  C68  1  0.98130000  0.75461000  0.65135000  1
  C  C69  1  0.97606000  0.75375000  0.70833000  1
  C  C70  1  0.97545000  0.79886000  0.73014000  1
  C  C71  1  0.97911000  0.85090000  0.69510000  1
  C  C72  1  0.98303000  0.85132000  0.63754000  1
  C  C73  1  0.97941000  0.90063000  0.71349000  1
  C  C74  1  0.92996000  0.92501000  0.76519000  1
  C  C75  1  0.93444000  0.97468000  0.77772000  1
  C  C76  1  0.98267000  0.00087000  0.74353000  1
  C  C77  1  0.03781000  0.97433000  0.69053000  1
  C  C78  1  0.03178000  0.92490000  0.67810000  1
  C  C79  1  0.98822000  0.05270000  0.75478000  1
  C  C80  1  0.00997000  0.38151000  0.80655000  1
  C  C81  1  0.00293000  0.44207000  0.80861000  1
  C  C82  1  0.04620000  0.46639000  0.75957000  1
  C  C83  1  0.03978000  0.52375000  0.75917000  1
  C  C84  1  0.99102000  0.55610000  0.80686000  1
  C  C85  1  0.95435000  0.53010000  0.85460000  1
  C  C86  1  0.95908000  0.47341000  0.85543000  1
  C  C87  1  0.98668000  0.61460000  0.80420000  1
  C  C88  1  0.98130000  0.65135000  0.75461000  1
  C  C89  1  0.97606000  0.70833000  0.75375000  1
  C  C90  1  0.97545000  0.73014000  0.79886000  1
  C  C91  1  0.97911000  0.69510000  0.85090000  1
  C  C92  1  0.98303000  0.63754000  0.85132000  1
  C  C93  1  0.97941000  0.71349000  0.90063000  1
  C  C94  1  0.92996000  0.76519000  0.92501000  1
  C  C95  1  0.93444000  0.77772000  0.97468000  1
  C  C96  1  0.98267000  0.74353000  0.00087000  1
  C  C97  1  0.03781000  0.69053000  0.97433000  1
  C  C98  1  0.03178000  0.67810000  0.92490000  1
  C  C99  1  0.98822000  0.75478000  0.05270000  1
  C  C100  1  0.80197000  0.80655000  0.38151000  1
  C  C101  1  0.74639000  0.80861000  0.44207000  1
  C  C102  1  0.72784000  0.75957000  0.46639000  1
  C  C103  1  0.67730000  0.75917000  0.52375000  1
  C  C104  1  0.64602000  0.80686000  0.55610000  1
  C  C105  1  0.66095000  0.85460000  0.53010000  1
  C  C106  1  0.71208000  0.85543000  0.47341000  1
  C  C107  1  0.59452000  0.80420000  0.61460000  1
  C  C108  1  0.61274000  0.75461000  0.65135000  1
  C  C109  1  0.56186000  0.75375000  0.70833000  1
  C  C110  1  0.49555000  0.79886000  0.73014000  1
  C  C111  1  0.47489000  0.85090000  0.69510000  1
  C  C112  1  0.52811000  0.85132000  0.63754000  1
  C  C113  1  0.40647000  0.90063000  0.71349000  1
  C  C114  1  0.37984000  0.92501000  0.76519000  1
  C  C115  1  0.31316000  0.97468000  0.77772000  1
  C  C116  1  0.27293000  0.00087000  0.74353000  1
  C  C117  1  0.29733000  0.97433000  0.69053000  1
  C  C118  1  0.36519333  0.92490000  0.67810000  1
  C  C119  1  0.20430000  0.05270000  0.75478000  1
  C  C120  1  0.19803000  0.61849000  0.19345000  1
  C  C121  1  0.25361000  0.55793000  0.19139000  1
  C  C122  1  0.27216000  0.53361000  0.24043000  1
  C  C123  1  0.32270000  0.47625000  0.24083000  1
  C  C124  1  0.35398000  0.44390000  0.19314000  1
  C  C125  1  0.33905000  0.46990000  0.14540000  1
  C  C126  1  0.28792000  0.52659000  0.14457000  1
  C  C127  1  0.40548000  0.38540000  0.19580000  1
  C  C128  1  0.38726000  0.34865000  0.24539000  1
  C  C129  1  0.43814000  0.29167000  0.24625000  1
  C  C130  1  0.50445000  0.26986000  0.20114000  1
  C  C131  1  0.52511000  0.30490000  0.14910000  1
  C  C132  1  0.47189000  0.36246000  0.14868000  1
  C  C133  1  0.59353000  0.28651000  0.09937000  1
  C  C134  1  0.62016000  0.23481000  0.07499000  1
  C  C135  1  0.68684000  0.22228000  0.02532000  1
  C  C136  1  0.72707000  0.25647000  0.99913000  1
  C  C137  1  0.70267000  0.30947000  0.02567000  1
  C  C138  1  0.63478000  0.32190000  0.07510000  1
  C  C139  1  0.79570000  0.24522000  0.94730000  1
  C  C140  1  0.99003000  0.19345000  0.61849000  1
  C  C141  1  0.99707000  0.19139000  0.55793000  1
  C  C142  1  0.95380000  0.24043000  0.53361000  1
  C  C143  1  0.96022000  0.24083000  0.47625000  1
  C  C144  1  0.00898000  0.19314000  0.44390000  1
  C  C145  1  0.04565000  0.14540000  0.46990000  1
  C  C146  1  0.04092000  0.14457000  0.52659000  1
  C  C147  1  0.01332000  0.19580000  0.38540000  1
  C  C148  1  0.01870000  0.24539000  0.34865000  1
  C  C149  1  0.02394000  0.24625000  0.29167000  1
  C  C150  1  0.02455000  0.20114000  0.26986000  1
  C  C151  1  0.02089000  0.14910000  0.30490000  1
  C  C152  1  0.01697000  0.14868000  0.36246000  1
  C  C153  1  0.02059000  0.09937000  0.28651000  1
  C  C154  1  0.07004000  0.07499000  0.23481000  1
  C  C155  1  0.06556000  0.02532000  0.22228000  1
  C  C156  1  0.01733000  0.99913000  0.25647000  1
  C  C157  1  0.96219000  0.02567000  0.30947000  1
  C  C158  1  0.96819333  0.07510000  0.32190000  1
  C  C159  1  0.01178000  0.94730000  0.24522000  1
  H  H160  1  0.92030000  0.55550000  0.27330000  1
  H  H161  1  0.93070000  0.45920000  0.27440000  1
  H  H162  1  0.07580000  0.44940000  0.11120000  1
  H  H163  1  0.06920000  0.54360000  0.11020000  1
  H  H164  1  0.01870000  0.36230000  0.27770000  1
  H  H165  1  0.01680000  0.38670000  0.11430000  1
  H  H166  1  0.10660000  0.20810000  0.09150000  1
  H  H167  1  0.10010000  0.18630000  0.00930000  1
  H  H168  1  0.92350000  0.33490000  0.01050000  1
  H  H169  1  0.93330000  0.35730000  0.09230000  1
  H  H170  1  0.02580000  0.19180000  0.19180000  1
  H  H171  1  0.25090000  0.27330000  0.55550000  1
  H  H172  1  0.33570000  0.27440000  0.45920000  1
  H  H173  1  0.36360000  0.11120000  0.44940000  1
  H  H174  1  0.27700000  0.11020000  0.54360000  1
  H  H175  1  0.34130000  0.27770000  0.36230000  1
  H  H176  1  0.48220000  0.11430000  0.38670000  1
  H  H177  1  0.59380000  0.09150000  0.20810000  1
  H  H178  1  0.70430000  0.00930000  0.18630000  1
  H  H179  1  0.73110000  0.01050000  0.33490000  1
  H  H180  1  0.61710000  0.09230000  0.35730000  1
  H  H181  1  0.59060000  0.19180000  0.19180000  1
  H  H182  1  0.74910000  0.44450000  0.72670000  1
  H  H183  1  0.66430000  0.54080000  0.72560000  1
  H  H184  1  0.63640000  0.55060000  0.88880000  1
  H  H185  1  0.72300000  0.45640000  0.88980000  1
  H  H186  1  0.65870000  0.63770000  0.72230000  1
  H  H187  1  0.51780000  0.61330000  0.88570000  1
  H  H188  1  0.40620000  0.79190000  0.90850000  1
  H  H189  1  0.29570000  0.81370000  0.99070000  1
  H  H190  1  0.26890000  0.66510000  0.98950000  1
  H  H191  1  0.38290000  0.64270000  0.90770000  1
  H  H192  1  0.40940000  0.80820000  0.80820000  1
  H  H193  1  0.07970000  0.72670000  0.44450000  1
  H  H194  1  0.06930000  0.72560000  0.54080000  1
  H  H195  1  0.92420000  0.88880000  0.55060000  1
  H  H196  1  0.93080000  0.88980000  0.45640000  1
  H  H197  1  0.98130000  0.72230000  0.63770000  1
  H  H198  1  0.98320000  0.88570000  0.61330000  1
  H  H199  1  0.89340000  0.90850000  0.79190000  1
  H  H200  1  0.89990000  0.99070000  0.81370000  1
  H  H201  1  0.07650000  0.98950000  0.66510000  1
  H  H202  1  0.06670000  0.90770000  0.64270000  1
  H  H203  1  0.97420000  0.80820000  0.80820000  1
  H  H204  1  0.07970000  0.44450000  0.72670000  1
  H  H205  1  0.06930000  0.54080000  0.72560000  1
  H  H206  1  0.92420000  0.55060000  0.88880000  1
  H  H207  1  0.93080000  0.45640000  0.88980000  1
  H  H208  1  0.98130000  0.63770000  0.72230000  1
  H  H209  1  0.98320000  0.61330000  0.88570000  1
  H  H210  1  0.89340000  0.79190000  0.90850000  1
  H  H211  1  0.89990000  0.81370000  0.99070000  1
  H  H212  1  0.07650000  0.66510000  0.98950000  1
  H  H213  1  0.06670000  0.64270000  0.90770000  1
  H  H214  1  0.74910000  0.72670000  0.44450000  1
  H  H215  1  0.66430000  0.72560000  0.54080000  1
  H  H216  1  0.63640000  0.88880000  0.55060000  1
  H  H217  1  0.72300000  0.88980000  0.45640000  1
  H  H218  1  0.65870000  0.72230000  0.63770000  1
  H  H219  1  0.51780000  0.88570000  0.61330000  1
  H  H220  1  0.40620000  0.90850000  0.79190000  1
  H  H221  1  0.29570000  0.99070000  0.81370000  1
  H  H222  1  0.26890000  0.98950000  0.66510000  1
  H  H223  1  0.38290000  0.90770000  0.64270000  1
  H  H224  1  0.25090000  0.55550000  0.27330000  1
  H  H225  1  0.33570000  0.45920000  0.27440000  1
  H  H226  1  0.36360000  0.44940000  0.11120000  1
  H  H227  1  0.27700000  0.54360000  0.11020000  1
  H  H228  1  0.34130000  0.36230000  0.27770000  1
  H  H229  1  0.48220000  0.38670000  0.11430000  1
  H  H230  1  0.59380000  0.20810000  0.09150000  1
  H  H231  1  0.70430000  0.18630000  0.00930000  1
  H  H232  1  0.73110000  0.33490000  0.01050000  1
  H  H233  1  0.61710000  0.35730000  0.09230000  1
  H  H234  1  0.92030000  0.27330000  0.55550000  1
  H  H235  1  0.93070000  0.27440000  0.45920000  1
  H  H236  1  0.07580000  0.11120000  0.44940000  1
  H  H237  1  0.06920000  0.11020000  0.54360000  1
  H  H238  1  0.01870000  0.27770000  0.36230000  1
  H  H239  1  0.01680000  0.11430000  0.38670000  1
  H  H240  1  0.10660000  0.09150000  0.20810000  1
  H  H241  1  0.10010000  0.00930000  0.18630000  1
  H  H242  1  0.92350000  0.01050000  0.33490000  1
  H  H243  1  0.93330000  0.09230000  0.35730000  1
  N  N244  1  0.02516000  0.21434000  0.21434000  1
  N  N245  1  0.54616000  0.21434000  0.21434000  1
  N  N246  1  0.45384000  0.78566000  0.78566000  1
  N  N247  1  0.97484000  0.78566000  0.78566000  1
  O  O248  1  0.94733000  0.74962000  0.18062000  1
  O  O249  1  0.93873000  0.64686000  0.23622000  1
  O  O250  1  0.03821000  0.63640000  0.15314000  1
  O  O251  1  0.95973000  0.27921000  0.93021000  1
  O  O252  1  0.06278000  0.19870000  0.92274000  1
  O  O253  1  0.03520000  0.69414000  0.23546000  1
  O  O254  1  0.03544000  0.80491000  0.12421000  1
  O  O255  1  0.12243000  0.18062000  0.74962000  1
  O  O256  1  0.17819000  0.23622000  0.64686000  1
  O  O257  1  0.17225000  0.15314000  0.63640000  1
  O  O258  1  0.83085000  0.93021000  0.27921000  1
  O  O259  1  0.81578000  0.92274000  0.19870000  1
  O  O260  1  0.03520000  0.23546000  0.69414000  1
  O  O261  1  0.03544000  0.12421000  0.80491000  1
  O  O262  1  0.87757000  0.25038000  0.81938000  1
  O  O263  1  0.82181000  0.35314000  0.76378000  1
  O  O264  1  0.82775000  0.36360000  0.84686000  1
  O  O265  1  0.16915000  0.72079000  0.06979000  1
  O  O266  1  0.18422000  0.80130000  0.07726000  1
  O  O267  1  0.96480000  0.30586000  0.76454000  1
  O  O268  1  0.96456000  0.19509000  0.87579000  1
  O  O269  1  0.05267000  0.81938000  0.25038000  1
  O  O270  1  0.06127000  0.76378000  0.35314000  1
  O  O271  1  0.96179000  0.84686000  0.36360000  1
  O  O272  1  0.04027000  0.06979000  0.72079000  1
  O  O273  1  0.93722000  0.07726000  0.80130000  1
  O  O274  1  0.96480000  0.76454000  0.30586000  1
  O  O275  1  0.96456000  0.87579000  0.19509000  1
  O  O276  1  0.05267000  0.25038000  0.81938000  1
  O  O277  1  0.06127000  0.35314000  0.76378000  1
  O  O278  1  0.96179000  0.36360000  0.84686000  1
  O  O279  1  0.04027000  0.72079000  0.06979000  1
  O  O280  1  0.93722000  0.80130000  0.07726000  1
  O  O281  1  0.87757000  0.81938000  0.25038000  1
  O  O282  1  0.82181000  0.76378000  0.35314000  1
  O  O283  1  0.82775000  0.84686000  0.36360000  1
  O  O284  1  0.16915000  0.06979000  0.72079000  1
  O  O285  1  0.18422000  0.07726000  0.80130000  1
  O  O286  1  0.12243000  0.74962000  0.18062000  1
  O  O287  1  0.17819000  0.64686000  0.23622000  1
  O  O288  1  0.17225000  0.63640000  0.15314000  1
  O  O289  1  0.83085000  0.27921000  0.93021000  1
  O  O290  1  0.81578000  0.19870000  0.92274000  1
  O  O291  1  0.94733000  0.18062000  0.74962000  1
  O  O292  1  0.93873000  0.23622000  0.64686000  1
  O  O293  1  0.03821000  0.15314000  0.63640000  1
  O  O294  1  0.95973000  0.93021000  0.27921000  1
  O  O295  1  0.06278000  0.92274000  0.19870000  1
  Zr  Zr296  1  0.07220000  0.71180000  0.14380000  1
  Zr  Zr297  1  0.91259000  0.83972000  0.16028000  1
  Zr  Zr298  1  0.91388000  0.72875000  0.27125000  1
  Zr  Zr299  1  0.07220000  0.14380000  0.71180000  1
  Zr  Zr300  1  0.08741000  0.16028000  0.83972000  1
  Zr  Zr301  1  0.08612000  0.27125000  0.72875000  1
  Zr  Zr302  1  0.92780000  0.28820000  0.85620000  1
  Zr  Zr303  1  0.91259000  0.16028000  0.83972000  1
  Zr  Zr304  1  0.91388000  0.27125000  0.72875000  1
  Zr  Zr305  1  0.92780000  0.85620000  0.28820000  1
  Zr  Zr306  1  0.08741000  0.83972000  0.16028000  1
  Zr  Zr307  1  0.08612000  0.72875000  0.27125000  1
