# generated using pymatgen
data_Zr3H6C6O17
_symmetry_space_group_name_H-M   'P 1'
_cell_length_a   10.04970000
_cell_length_b   11.18472952
_cell_length_c   19.77120000
_cell_angle_alpha   90.00000000
_cell_angle_beta   90.00000000
_cell_angle_gamma   116.69620713
_symmetry_Int_Tables_number   1
_chemical_formula_structural   Zr3H6C6O17
_chemical_formula_sum   'Zr12 H24 C24 O68'
_cell_volume   1985.44614195
_cell_formula_units_Z   4
loop_
 _symmetry_equiv_pos_site_id
 _symmetry_equiv_pos_as_xyz
  1  'x, y, z'
loop_
 _atom_site_type_symbol
 _atom_site_label
 _atom_site_symmetry_multiplicity
 _atom_site_fract_x
 _atom_site_fract_y
 _atom_site_fract_z
 _atom_site_occupancy
  C  C0  1  0.41950000  0.26940000  0.85770000  1
  C  C1  1  0.10120000  0.64040000  0.92690000  1
  C  C2  1  0.95800000  0.91600000  0.90920000  1
  C  C3  1  0.29370000  0.95940000  0.75000000  1
  C  C4  1  0.58050000  0.73060000  0.35770000  1
  C  C5  1  0.89880000  0.35960000  0.42690000  1
  C  C6  1  0.04200000  0.08400000  0.40920000  1
  C  C7  1  0.70630000  0.04060000  0.25000000  1
  C  C8  1  0.15010000  0.73060000  0.14230000  1
  C  C9  1  0.46080000  0.35960000  0.07310000  1
  C  C10  1  0.04200000  0.08400000  0.09080000  1
  C  C11  1  0.33430000  0.04060000  0.25000000  1
  C  C12  1  0.84990000  0.26940000  0.64230000  1
  C  C13  1  0.53920000  0.64040000  0.57310000  1
  C  C14  1  0.95800000  0.91600000  0.59080000  1
  C  C15  1  0.66570000  0.95940000  0.75000000  1
  C  C16  1  0.58050000  0.73060000  0.14230000  1
  C  C17  1  0.89880000  0.35960000  0.07310000  1
  C  C18  1  0.41950000  0.26940000  0.64230000  1
  C  C19  1  0.10120000  0.64040000  0.57310000  1
  C  C20  1  0.84990000  0.26940000  0.85770000  1
  C  C21  1  0.53920000  0.64040000  0.92690000  1
  C  C22  1  0.15010000  0.73060000  0.35770000  1
  C  C23  1  0.46080000  0.35960000  0.42690000  1
  H  H24  1  0.40310000  0.32540000  0.82760000  1
  H  H25  1  0.01700000  0.56560000  0.91220000  1
  H  H26  1  0.91210000  0.82420000  0.90100000  1
  H  H27  1  0.29190000  0.04180000  0.75000000  1
  H  H28  1  0.59690000  0.67460000  0.32760000  1
  H  H29  1  0.98300000  0.43440000  0.41220000  1
  H  H30  1  0.08790000  0.17580000  0.40100000  1
  H  H31  1  0.70810000  0.95820000  0.25000000  1
  H  H32  1  0.07770000  0.67460000  0.17240000  1
  H  H33  1  0.45140000  0.43440000  0.08780000  1
  H  H34  1  0.08790000  0.17580000  0.09900000  1
  H  H35  1  0.25010000  0.95820000  0.25000000  1
  H  H36  1  0.92230000  0.32540000  0.67240000  1
  H  H37  1  0.54860000  0.56560000  0.58780000  1
  H  H38  1  0.91210000  0.82420000  0.59900000  1
  H  H39  1  0.74990000  0.04180000  0.75000000  1
  H  H40  1  0.59690000  0.67460000  0.17240000  1
  H  H41  1  0.98300000  0.43440000  0.08780000  1
  H  H42  1  0.40310000  0.32540000  0.67240000  1
  H  H43  1  0.01700000  0.56560000  0.58780000  1
  H  H44  1  0.92230000  0.32540000  0.82760000  1
  H  H45  1  0.54860000  0.56560000  0.91220000  1
  H  H46  1  0.07770000  0.67460000  0.32760000  1
  H  H47  1  0.45140000  0.43440000  0.41220000  1
  O  O48  1  0.53060000  0.32460000  0.89620000  1
  O  O49  1  0.29480000  0.91320000  0.80560000  1
  O  O50  1  0.32900000  0.14840000  0.85510000  1
  O  O51  1  0.12540000  0.74860000  0.90000000  1
  O  O52  1  0.17810000  0.62000000  0.97230000  1
  O  O53  1  0.08080000  0.94240000  0.92480000  1
  O  O54  1  0.36230000  0.13180000  0.98360000  1
  O  O55  1  0.54480000  0.08960000  0.88510000  1
  O  O56  1  0.43410000  0.86820000  0.93750000  1
  O  O57  1  0.41220000  0.82440000  0.91050000  1
  O  O58  1  0.46940000  0.67540000  0.39620000  1
  O  O59  1  0.70520000  0.08680000  0.30560000  1
  O  O60  1  0.67100000  0.85160000  0.35510000  1
  O  O61  1  0.87460000  0.25140000  0.40000000  1
  O  O62  1  0.82190000  0.38000000  0.47230000  1
  O  O63  1  0.91920000  0.05760000  0.42480000  1
  O  O64  1  0.63770000  0.86820000  0.48360000  1
  O  O65  1  0.45520000  0.91040000  0.38510000  1
  O  O66  1  0.56590000  0.13180000  0.43750000  1
  O  O67  1  0.58780000  0.17560000  0.41050000  1
  O  O68  1  0.20600000  0.67540000  0.10380000  1
  O  O69  1  0.38160000  0.08680000  0.19440000  1
  O  O70  1  0.18060000  0.85160000  0.14490000  1
  O  O71  1  0.37680000  0.25140000  0.10000000  1
  O  O72  1  0.55810000  0.38000000  0.02770000  1
  O  O73  1  0.13840000  0.05760000  0.07520000  1
  O  O74  1  0.23050000  0.86820000  0.01640000  1
  O  O75  1  0.45520000  0.91040000  0.11490000  1
  O  O76  1  0.56590000  0.13180000  0.06250000  1
  O  O77  1  0.58780000  0.17560000  0.08950000  1
  O  O78  1  0.79400000  0.32460000  0.60380000  1
  O  O79  1  0.61840000  0.91320000  0.69440000  1
  O  O80  1  0.81940000  0.14840000  0.64490000  1
  O  O81  1  0.62320000  0.74860000  0.60000000  1
  O  O82  1  0.44190000  0.62000000  0.52770000  1
  O  O83  1  0.86160000  0.94240000  0.57520000  1
  O  O84  1  0.76950000  0.13180000  0.51640000  1
  O  O85  1  0.54480000  0.08960000  0.61490000  1
  O  O86  1  0.43410000  0.86820000  0.56250000  1
  O  O87  1  0.41220000  0.82440000  0.58950000  1
  O  O88  1  0.46940000  0.67540000  0.10380000  1
  O  O89  1  0.70520000  0.08680000  0.19440000  1
  O  O90  1  0.67100000  0.85160000  0.14490000  1
  O  O91  1  0.87460000  0.25140000  0.10000000  1
  O  O92  1  0.82190000  0.38000000  0.02770000  1
  O  O93  1  0.91920000  0.05760000  0.07520000  1
  O  O94  1  0.63770000  0.86820000  0.01640000  1
  O  O95  1  0.53060000  0.32460000  0.60380000  1
  O  O96  1  0.29480000  0.91320000  0.69440000  1
  O  O97  1  0.32900000  0.14840000  0.64490000  1
  O  O98  1  0.12540000  0.74860000  0.60000000  1
  O  O99  1  0.17810000  0.62000000  0.52770000  1
  O  O100  1  0.08080000  0.94240000  0.57520000  1
  O  O101  1  0.36230000  0.13180000  0.51640000  1
  O  O102  1  0.79400000  0.32460000  0.89620000  1
  O  O103  1  0.61840000  0.91320000  0.80560000  1
  O  O104  1  0.81940000  0.14840000  0.85510000  1
  O  O105  1  0.62320000  0.74860000  0.90000000  1
  O  O106  1  0.44190000  0.62000000  0.97230000  1
  O  O107  1  0.86160000  0.94240000  0.92480000  1
  O  O108  1  0.76950000  0.13180000  0.98360000  1
  O  O109  1  0.20600000  0.67540000  0.39620000  1
  O  O110  1  0.38160000  0.08680000  0.30560000  1
  O  O111  1  0.18060000  0.85160000  0.35510000  1
  O  O112  1  0.37680000  0.25140000  0.40000000  1
  O  O113  1  0.55810000  0.38000000  0.47230000  1
  O  O114  1  0.13840000  0.05760000  0.42480000  1
  O  O115  1  0.23050000  0.86820000  0.48360000  1
  Zr  Zr116  1  0.30510000  0.96272000  0.91244000  1
  Zr  Zr117  1  0.61995000  0.23990000  0.97395000  1
  Zr  Zr118  1  0.69490000  0.03728000  0.41244000  1
  Zr  Zr119  1  0.38005000  0.76010000  0.47395000  1
  Zr  Zr120  1  0.34238000  0.03728000  0.08756000  1
  Zr  Zr121  1  0.38005000  0.76010000  0.02605000  1
  Zr  Zr122  1  0.65762000  0.96272000  0.58756000  1
  Zr  Zr123  1  0.61995000  0.23990000  0.52605000  1
  Zr  Zr124  1  0.69490000  0.03728000  0.08756000  1
  Zr  Zr125  1  0.30510000  0.96272000  0.58756000  1
  Zr  Zr126  1  0.65762000  0.96272000  0.91244000  1
  Zr  Zr127  1  0.34238000  0.03728000  0.41244000  1
