# generated using pymatgen
data_Zr9H64(C20O7)6
_symmetry_space_group_name_H-M   'P 1'
_cell_length_a   15.43800000
_cell_length_b   40.96200000
_cell_length_c   40.96200000
_cell_angle_alpha   120.00000000
_cell_angle_beta   90.00000000
_cell_angle_gamma   90.00000000
_symmetry_Int_Tables_number   1
_chemical_formula_structural   Zr9H64(C20O7)6
_chemical_formula_sum   'Zr18 H128 C240 O84'
_cell_volume   22432.82532875
_cell_formula_units_Z   2
loop_
 _symmetry_equiv_pos_site_id
 _symmetry_equiv_pos_as_xyz
  1  'x, y, z'
loop_
 _atom_site_type_symbol
 _atom_site_label
 _atom_site_symmetry_multiplicity
 _atom_site_fract_x
 _atom_site_fract_y
 _atom_site_fract_z
 _atom_site_occupancy
  Zr  Zr0  1  0.00000000  0.46510000  0.53489000  1
  Zr  Zr1  1  0.00000000  0.06979000  0.53489000  1
  Zr  Zr2  1  0.00000000  0.46510000  0.93020000  1
  Zr  Zr3  1  0.00000000  0.53490000  0.46511000  1
  Zr  Zr4  1  1.00000000  0.93021000  0.46511000  1
  Zr  Zr5  1  0.00000000  0.53490000  0.06980000  1
  Zr  Zr6  1  0.88602000  0.54349000  0.54349000  1
  Zr  Zr7  1  0.88602000  0.00000000  0.45651000  1
  Zr  Zr8  1  0.88602000  0.45651000  0.00000000  1
  Zr  Zr9  1  0.88602000  0.45651000  0.45651000  1
  Zr  Zr10  1  0.88602000  0.00000000  0.54349000  1
  Zr  Zr11  1  0.88602000  0.54349000  0.00000000  1
  Zr  Zr12  1  0.11398000  0.00000000  0.45651000  1
  Zr  Zr13  1  0.11398000  0.54349000  0.54349000  1
  Zr  Zr14  1  0.11398000  0.45651000  0.00000000  1
  Zr  Zr15  1  0.11398000  0.00000000  0.54349000  1
  Zr  Zr16  1  0.11398000  0.45651000  0.45651000  1
  Zr  Zr17  1  0.11398000  0.54349000  0.00000000  1
  H  H18  1  0.56460000  0.52440000  0.71380000  1
  H  H19  1  0.74320000  0.55770000  0.64520000  1
  H  H20  1  0.67650000  0.56510000  0.69950000  1
  H  H21  1  0.80800000  0.47410000  0.68570000  1
  H  H22  1  0.87050000  0.46910000  0.63310000  1
  H  H23  1  0.56460000  0.18940000  0.47560000  1
  H  H24  1  0.74320000  0.08750000  0.44230000  1
  H  H25  1  0.67650000  0.13440000  0.43490000  1
  H  H26  1  0.80800000  0.21160000  0.52590000  1
  H  H27  1  0.87050000  0.16400000  0.53090000  1
  H  H28  1  0.56460000  0.28620000  0.81060000  1
  H  H29  1  0.74320000  0.35480000  0.91250000  1
  H  H30  1  0.67650000  0.30050000  0.86560000  1
  H  H31  1  0.80800000  0.31430000  0.78840000  1
  H  H32  1  0.87050000  0.36690000  0.83600000  1
  H  H33  1  0.56460000  0.47560000  0.28620000  1
  H  H34  1  0.74320000  0.44230000  0.35480000  1
  H  H35  1  0.67650000  0.43490000  0.30050000  1
  H  H36  1  0.80800000  0.52590000  0.31430000  1
  H  H37  1  0.87050000  0.53090000  0.36690000  1
  H  H38  1  0.56460000  0.81060000  0.52440000  1
  H  H39  1  0.74320000  0.91250000  0.55770000  1
  H  H40  1  0.67650000  0.86560000  0.56510000  1
  H  H41  1  0.80800000  0.78840000  0.47410000  1
  H  H42  1  0.87050000  0.83600000  0.46910000  1
  H  H43  1  0.56460000  0.71380000  0.18940000  1
  H  H44  1  0.74320000  0.64520000  0.08750000  1
  H  H45  1  0.67650000  0.69950000  0.13440000  1
  H  H46  1  0.80800000  0.68570000  0.21160000  1
  H  H47  1  0.87050000  0.63310000  0.16400000  1
  H  H48  1  0.43540000  0.81060000  0.28620000  1
  H  H49  1  0.25680000  0.91250000  0.35480000  1
  H  H50  1  0.32350000  0.86560000  0.30050000  1
  H  H51  1  0.19200000  0.78840000  0.31430000  1
  H  H52  1  0.12950000  0.83600000  0.36690000  1
  H  H53  1  0.43540000  0.71380000  0.52440000  1
  H  H54  1  0.25680000  0.64520000  0.55770000  1
  H  H55  1  0.32350000  0.69950000  0.56510000  1
  H  H56  1  0.19200000  0.68570000  0.47410000  1
  H  H57  1  0.12950000  0.63310000  0.46910000  1
  H  H58  1  0.43540000  0.47560000  0.18940000  1
  H  H59  1  0.25680000  0.44230000  0.08750000  1
  H  H60  1  0.32350000  0.43490000  0.13440000  1
  H  H61  1  0.19200000  0.52590000  0.21160000  1
  H  H62  1  0.12950000  0.53090000  0.16400000  1
  H  H63  1  0.43540000  0.18940000  0.71380000  1
  H  H64  1  0.25680000  0.08750000  0.64520000  1
  H  H65  1  0.32350000  0.13440000  0.69950000  1
  H  H66  1  0.19200000  0.21160000  0.68570000  1
  H  H67  1  0.12950000  0.16400000  0.63310000  1
  H  H68  1  0.43540000  0.28620000  0.47560000  1
  H  H69  1  0.25680000  0.35480000  0.44230000  1
  H  H70  1  0.32350000  0.30050000  0.43490000  1
  H  H71  1  0.19200000  0.31430000  0.52590000  1
  H  H72  1  0.12950000  0.36690000  0.53090000  1
  H  H73  1  0.43540000  0.52440000  0.81060000  1
  H  H74  1  0.25680000  0.55770000  0.91250000  1
  H  H75  1  0.32350000  0.56510000  0.86560000  1
  H  H76  1  0.19200000  0.47410000  0.78840000  1
  H  H77  1  0.12950000  0.46910000  0.83600000  1
  H  H78  1  0.43540000  0.47560000  0.28620000  1
  H  H79  1  0.25680000  0.44230000  0.35480000  1
  H  H80  1  0.32350000  0.43490000  0.30050000  1
  H  H81  1  0.19200000  0.52590000  0.31430000  1
  H  H82  1  0.12950000  0.53090000  0.36690000  1
  H  H83  1  0.43540000  0.81060000  0.52440000  1
  H  H84  1  0.25680000  0.91250000  0.55770000  1
  H  H85  1  0.32350000  0.86560000  0.56510000  1
  H  H86  1  0.19200000  0.78840000  0.47410000  1
  H  H87  1  0.12950000  0.83600000  0.46910000  1
  H  H88  1  0.43540000  0.71380000  0.18940000  1
  H  H89  1  0.25680000  0.64520000  0.08750000  1
  H  H90  1  0.32350000  0.69950000  0.13440000  1
  H  H91  1  0.19200000  0.68570000  0.21160000  1
  H  H92  1  0.12950000  0.63310000  0.16400000  1
  H  H93  1  0.43540000  0.52440000  0.71380000  1
  H  H94  1  0.25680000  0.55770000  0.64520000  1
  H  H95  1  0.32350000  0.56510000  0.69950000  1
  H  H96  1  0.19200000  0.47410000  0.68570000  1
  H  H97  1  0.12950000  0.46910000  0.63310000  1
  H  H98  1  0.43540000  0.18940000  0.47560000  1
  H  H99  1  0.25680000  0.08750000  0.44230000  1
  H  H100  1  0.32350000  0.13440000  0.43490000  1
  H  H101  1  0.19200000  0.21160000  0.52590000  1
  H  H102  1  0.12950000  0.16400000  0.53090000  1
  H  H103  1  0.43540000  0.28620000  0.81060000  1
  H  H104  1  0.25680000  0.35480000  0.91250000  1
  H  H105  1  0.32350000  0.30050000  0.86560000  1
  H  H106  1  0.19200000  0.31430000  0.78840000  1
  H  H107  1  0.12950000  0.36690000  0.83600000  1
  H  H108  1  0.56460000  0.18940000  0.71380000  1
  H  H109  1  0.74320000  0.08750000  0.64520000  1
  H  H110  1  0.67650000  0.13440000  0.69950000  1
  H  H111  1  0.80800000  0.21160000  0.68570000  1
  H  H112  1  0.87050000  0.16400000  0.63310000  1
  H  H113  1  0.56460000  0.28620000  0.47560000  1
  H  H114  1  0.74320000  0.35480000  0.44230000  1
  H  H115  1  0.67650000  0.30050000  0.43490000  1
  H  H116  1  0.80800000  0.31430000  0.52590000  1
  H  H117  1  0.87050000  0.36690000  0.53090000  1
  H  H118  1  0.56460000  0.52440000  0.81060000  1
  H  H119  1  0.74320000  0.55770000  0.91250000  1
  H  H120  1  0.67650000  0.56510000  0.86560000  1
  H  H121  1  0.80800000  0.47410000  0.78840000  1
  H  H122  1  0.87050000  0.46910000  0.83600000  1
  H  H123  1  0.56460000  0.81060000  0.28620000  1
  H  H124  1  0.74320000  0.91250000  0.35480000  1
  H  H125  1  0.67650000  0.86560000  0.30050000  1
  H  H126  1  0.80800000  0.78840000  0.31430000  1
  H  H127  1  0.87050000  0.83600000  0.36690000  1
  H  H128  1  0.56460000  0.71380000  0.52440000  1
  H  H129  1  0.74320000  0.64520000  0.55770000  1
  H  H130  1  0.67650000  0.69950000  0.56510000  1
  H  H131  1  0.80800000  0.68570000  0.47410000  1
  H  H132  1  0.87050000  0.63310000  0.46910000  1
  H  H133  1  0.56460000  0.47560000  0.18940000  1
  H  H134  1  0.74320000  0.44230000  0.08750000  1
  H  H135  1  0.67650000  0.43490000  0.13440000  1
  H  H136  1  0.80800000  0.52590000  0.21160000  1
  H  H137  1  0.87050000  0.53090000  0.16400000  1
  H  H138  1  0.15290000  0.79005000  0.25454000  1
  H  H139  1  0.15286000  0.79005000  0.53623000  1
  H  H140  1  0.84522000  0.73106000  0.50672000  1
  H  H141  1  0.84517000  0.73106000  0.22507000  1
  H  H142  1  0.84517000  0.26894000  0.49401000  1
  H  H143  1  0.84522000  0.26894000  0.77566000  1
  H  H144  1  0.15286000  0.20995000  0.74618000  1
  H  H145  1  0.15290000  0.20995000  0.46450000  1
  C  C146  1  0.59470000  0.52360000  0.73306000  1
  C  C147  1  0.81440000  0.51276000  0.63381000  1
  C  C148  1  0.75610000  0.54090000  0.65356000  1
  C  C149  1  0.85930000  0.51019000  0.60071000  1
  C  C150  1  0.68660000  0.52257000  0.73177000  1
  C  C151  1  0.71500000  0.54538000  0.68603000  1
  C  C152  1  0.73360000  0.51908000  0.69747000  1
  C  C153  1  0.79340000  0.49109000  0.67779000  1
  C  C154  1  0.83120000  0.48854000  0.64646000  1
  C  C155  1  0.59470000  0.20946000  0.47640000  1
  C  C156  1  0.81440000  0.12105000  0.48724000  1
  C  C157  1  0.75610000  0.11266000  0.45910000  1
  C  C158  1  0.85930000  0.09052000  0.48981000  1
  C  C159  1  0.68660000  0.20920000  0.47743000  1
  C  C160  1  0.71500000  0.14065000  0.45462000  1
  C  C161  1  0.73360000  0.17839000  0.48092000  1
  C  C162  1  0.79340000  0.18670000  0.50891000  1
  C  C163  1  0.83120000  0.15792000  0.51146000  1
  C  C164  1  0.59470000  0.26694000  0.79054000  1
  C  C165  1  0.81440000  0.36619000  0.87895000  1
  C  C166  1  0.75610000  0.34644000  0.88734000  1
  C  C167  1  0.85930000  0.39929000  0.90948000  1
  C  C168  1  0.68660000  0.26823000  0.79080000  1
  C  C169  1  0.71500000  0.31397000  0.85935000  1
  C  C170  1  0.73360000  0.30253000  0.82161000  1
  C  C171  1  0.79340000  0.32221000  0.81330000  1
  C  C172  1  0.83120000  0.35354000  0.84208000  1
  C  C173  1  0.59470000  0.47640000  0.26694000  1
  C  C174  1  0.81440000  0.48724000  0.36619000  1
  C  C175  1  0.75610000  0.45910000  0.34644000  1
  C  C176  1  0.85930000  0.48981000  0.39929000  1
  C  C177  1  0.68660000  0.47743000  0.26823000  1
  C  C178  1  0.71500000  0.45462000  0.31397000  1
  C  C179  1  0.73360000  0.48092000  0.30253000  1
  C  C180  1  0.79340000  0.50891000  0.32221000  1
  C  C181  1  0.83120000  0.51146000  0.35354000  1
  C  C182  1  0.59470000  0.79054000  0.52360000  1
  C  C183  1  0.81440000  0.87895000  0.51276000  1
  C  C184  1  0.75610000  0.88734000  0.54090000  1
  C  C185  1  0.85930000  0.90948000  0.51019000  1
  C  C186  1  0.68660000  0.79080000  0.52257000  1
  C  C187  1  0.71500000  0.85935000  0.54538000  1
  C  C188  1  0.73360000  0.82161000  0.51908000  1
  C  C189  1  0.79340000  0.81330000  0.49109000  1
  C  C190  1  0.83120000  0.84208000  0.48854000  1
  C  C191  1  0.59470000  0.73306000  0.20946000  1
  C  C192  1  0.81440000  0.63381000  0.12105000  1
  C  C193  1  0.75610000  0.65356000  0.11266000  1
  C  C194  1  0.85930000  0.60071000  0.09052000  1
  C  C195  1  0.68660000  0.73177000  0.20920000  1
  C  C196  1  0.71500000  0.68603000  0.14065000  1
  C  C197  1  0.73360000  0.69747000  0.17839000  1
  C  C198  1  0.79340000  0.67779000  0.18670000  1
  C  C199  1  0.83120000  0.64646000  0.15792000  1
  C  C200  1  0.40530000  0.79054000  0.26694000  1
  C  C201  1  0.18560000  0.87895000  0.36619000  1
  C  C202  1  0.24390000  0.88734000  0.34644000  1
  C  C203  1  0.14070000  0.90948000  0.39929000  1
  C  C204  1  0.31340000  0.79080000  0.26823000  1
  C  C205  1  0.28500000  0.85935000  0.31397000  1
  C  C206  1  0.26640000  0.82161000  0.30253000  1
  C  C207  1  0.20660000  0.81330000  0.32221000  1
  C  C208  1  0.16880000  0.84208000  0.35354000  1
  C  C209  1  0.40530000  0.73306000  0.52360000  1
  C  C210  1  0.18560000  0.63381000  0.51276000  1
  C  C211  1  0.24390000  0.65356000  0.54090000  1
  C  C212  1  0.14070000  0.60071000  0.51019000  1
  C  C213  1  0.31340000  0.73177000  0.52257000  1
  C  C214  1  0.28500000  0.68603000  0.54538000  1
  C  C215  1  0.26640000  0.69747000  0.51908000  1
  C  C216  1  0.20660000  0.67779000  0.49109000  1
  C  C217  1  0.16880000  0.64646000  0.48854000  1
  C  C218  1  0.40530000  0.47640000  0.20946000  1
  C  C219  1  0.18560000  0.48724000  0.12105000  1
  C  C220  1  0.24390000  0.45910000  0.11266000  1
  C  C221  1  0.14070000  0.48981000  0.09052000  1
  C  C222  1  0.31340000  0.47743000  0.20920000  1
  C  C223  1  0.28500000  0.45462000  0.14065000  1
  C  C224  1  0.26640000  0.48092000  0.17839000  1
  C  C225  1  0.20660000  0.50891000  0.18670000  1
  C  C226  1  0.16880000  0.51146000  0.15792000  1
  C  C227  1  0.40530000  0.20946000  0.73306000  1
  C  C228  1  0.18560000  0.12105000  0.63381000  1
  C  C229  1  0.24390000  0.11266000  0.65356000  1
  C  C230  1  0.14070000  0.09052000  0.60071000  1
  C  C231  1  0.31340000  0.20920000  0.73177000  1
  C  C232  1  0.28500000  0.14065000  0.68603000  1
  C  C233  1  0.26640000  0.17839000  0.69747000  1
  C  C234  1  0.20660000  0.18670000  0.67779000  1
  C  C235  1  0.16880000  0.15792000  0.64646000  1
  C  C236  1  0.40530000  0.26694000  0.47640000  1
  C  C237  1  0.18560000  0.36619000  0.48724000  1
  C  C238  1  0.24390000  0.34644000  0.45910000  1
  C  C239  1  0.14070000  0.39929000  0.48981000  1
  C  C240  1  0.31340000  0.26823000  0.47743000  1
  C  C241  1  0.28500000  0.31397000  0.45462000  1
  C  C242  1  0.26640000  0.30253000  0.48092000  1
  C  C243  1  0.20660000  0.32221000  0.50891000  1
  C  C244  1  0.16880000  0.35354000  0.51146000  1
  C  C245  1  0.40530000  0.52360000  0.79054000  1
  C  C246  1  0.18560000  0.51276000  0.87895000  1
  C  C247  1  0.24390000  0.54090000  0.88734000  1
  C  C248  1  0.14070000  0.51019000  0.90948000  1
  C  C249  1  0.31340000  0.52257000  0.79080000  1
  C  C250  1  0.28500000  0.54538000  0.85935000  1
  C  C251  1  0.26640000  0.51908000  0.82161000  1
  C  C252  1  0.20660000  0.49109000  0.81330000  1
  C  C253  1  0.16880000  0.48854000  0.84208000  1
  C  C254  1  0.40530000  0.47640000  0.26694000  1
  C  C255  1  0.18560000  0.48724000  0.36619000  1
  C  C256  1  0.24390000  0.45910000  0.34644000  1
  C  C257  1  0.14070000  0.48981000  0.39929000  1
  C  C258  1  0.31340000  0.47743000  0.26823000  1
  C  C259  1  0.28500000  0.45462000  0.31397000  1
  C  C260  1  0.26640000  0.48092000  0.30253000  1
  C  C261  1  0.20660000  0.50891000  0.32221000  1
  C  C262  1  0.16880000  0.51146000  0.35354000  1
  C  C263  1  0.40530000  0.79054000  0.52360000  1
  C  C264  1  0.18560000  0.87895000  0.51276000  1
  C  C265  1  0.24390000  0.88734000  0.54090000  1
  C  C266  1  0.14070000  0.90948000  0.51019000  1
  C  C267  1  0.31340000  0.79080000  0.52257000  1
  C  C268  1  0.28500000  0.85935000  0.54538000  1
  C  C269  1  0.26640000  0.82161000  0.51908000  1
  C  C270  1  0.20660000  0.81330000  0.49109000  1
  C  C271  1  0.16880000  0.84208000  0.48854000  1
  C  C272  1  0.40530000  0.73306000  0.20946000  1
  C  C273  1  0.18560000  0.63381000  0.12105000  1
  C  C274  1  0.24390000  0.65356000  0.11266000  1
  C  C275  1  0.14070000  0.60071000  0.09052000  1
  C  C276  1  0.31340000  0.73177000  0.20920000  1
  C  C277  1  0.28500000  0.68603000  0.14065000  1
  C  C278  1  0.26640000  0.69747000  0.17839000  1
  C  C279  1  0.20660000  0.67779000  0.18670000  1
  C  C280  1  0.16880000  0.64646000  0.15792000  1
  C  C281  1  0.40530000  0.52360000  0.73306000  1
  C  C282  1  0.18560000  0.51276000  0.63381000  1
  C  C283  1  0.24390000  0.54090000  0.65356000  1
  C  C284  1  0.14070000  0.51019000  0.60071000  1
  C  C285  1  0.31340000  0.52257000  0.73177000  1
  C  C286  1  0.28500000  0.54538000  0.68603000  1
  C  C287  1  0.26640000  0.51908000  0.69747000  1
  C  C288  1  0.20660000  0.49109000  0.67779000  1
  C  C289  1  0.16880000  0.48854000  0.64646000  1
  C  C290  1  0.40530000  0.20946000  0.47640000  1
  C  C291  1  0.18560000  0.12105000  0.48724000  1
  C  C292  1  0.24390000  0.11266000  0.45910000  1
  C  C293  1  0.14070000  0.09052000  0.48981000  1
  C  C294  1  0.31340000  0.20920000  0.47743000  1
  C  C295  1  0.28500000  0.14065000  0.45462000  1
  C  C296  1  0.26640000  0.17839000  0.48092000  1
  C  C297  1  0.20660000  0.18670000  0.50891000  1
  C  C298  1  0.16880000  0.15792000  0.51146000  1
  C  C299  1  0.40530000  0.26694000  0.79054000  1
  C  C300  1  0.18560000  0.36619000  0.87895000  1
  C  C301  1  0.24390000  0.34644000  0.88734000  1
  C  C302  1  0.14070000  0.39929000  0.90948000  1
  C  C303  1  0.31340000  0.26823000  0.79080000  1
  C  C304  1  0.28500000  0.31397000  0.85935000  1
  C  C305  1  0.26640000  0.30253000  0.82161000  1
  C  C306  1  0.20660000  0.32221000  0.81330000  1
  C  C307  1  0.16880000  0.35354000  0.84208000  1
  C  C308  1  0.59470000  0.20946000  0.73306000  1
  C  C309  1  0.81440000  0.12105000  0.63381000  1
  C  C310  1  0.75610000  0.11266000  0.65356000  1
  C  C311  1  0.85930000  0.09052000  0.60071000  1
  C  C312  1  0.68660000  0.20920000  0.73177000  1
  C  C313  1  0.71500000  0.14065000  0.68603000  1
  C  C314  1  0.73360000  0.17839000  0.69747000  1
  C  C315  1  0.79340000  0.18670000  0.67779000  1
  C  C316  1  0.83120000  0.15792000  0.64646000  1
  C  C317  1  0.59470000  0.26694000  0.47640000  1
  C  C318  1  0.81440000  0.36619000  0.48724000  1
  C  C319  1  0.75610000  0.34644000  0.45910000  1
  C  C320  1  0.85930000  0.39929000  0.48981000  1
  C  C321  1  0.68660000  0.26823000  0.47743000  1
  C  C322  1  0.71500000  0.31397000  0.45462000  1
  C  C323  1  0.73360000  0.30253000  0.48092000  1
  C  C324  1  0.79340000  0.32221000  0.50891000  1
  C  C325  1  0.83120000  0.35354000  0.51146000  1
  C  C326  1  0.59470000  0.52360000  0.79054000  1
  C  C327  1  0.81440000  0.51276000  0.87895000  1
  C  C328  1  0.75610000  0.54090000  0.88734000  1
  C  C329  1  0.85930000  0.51019000  0.90948000  1
  C  C330  1  0.68660000  0.52257000  0.79080000  1
  C  C331  1  0.71500000  0.54538000  0.85935000  1
  C  C332  1  0.73360000  0.51908000  0.82161000  1
  C  C333  1  0.79340000  0.49109000  0.81330000  1
  C  C334  1  0.83120000  0.48854000  0.84208000  1
  C  C335  1  0.59470000  0.79054000  0.26694000  1
  C  C336  1  0.81440000  0.87895000  0.36619000  1
  C  C337  1  0.75610000  0.88734000  0.34644000  1
  C  C338  1  0.85930000  0.90948000  0.39929000  1
  C  C339  1  0.68660000  0.79080000  0.26823000  1
  C  C340  1  0.71500000  0.85935000  0.31397000  1
  C  C341  1  0.73360000  0.82161000  0.30253000  1
  C  C342  1  0.79340000  0.81330000  0.32221000  1
  C  C343  1  0.83120000  0.84208000  0.35354000  1
  C  C344  1  0.59470000  0.73306000  0.52360000  1
  C  C345  1  0.81440000  0.63381000  0.51276000  1
  C  C346  1  0.75610000  0.65356000  0.54090000  1
  C  C347  1  0.85930000  0.60071000  0.51019000  1
  C  C348  1  0.68660000  0.73177000  0.52257000  1
  C  C349  1  0.71500000  0.68603000  0.54538000  1
  C  C350  1  0.73360000  0.69747000  0.51908000  1
  C  C351  1  0.79340000  0.67779000  0.49109000  1
  C  C352  1  0.83120000  0.64646000  0.48854000  1
  C  C353  1  0.59470000  0.47640000  0.20946000  1
  C  C354  1  0.81440000  0.48724000  0.12105000  1
  C  C355  1  0.75610000  0.45910000  0.11266000  1
  C  C356  1  0.85930000  0.48981000  0.09052000  1
  C  C357  1  0.68660000  0.47743000  0.20920000  1
  C  C358  1  0.71500000  0.45462000  0.14065000  1
  C  C359  1  0.73360000  0.48092000  0.17839000  1
  C  C360  1  0.79340000  0.50891000  0.18670000  1
  C  C361  1  0.83120000  0.51146000  0.15792000  1
  C  C362  1  0.54860000  0.52340000  0.76170000  1
  C  C363  1  0.73410000  0.52250000  0.76125000  1
  C  C364  1  0.54860000  0.23830000  0.47660000  1
  C  C365  1  0.73410000  0.23875000  0.47750000  1
  C  C366  1  0.54860000  0.23830000  0.76170000  1
  C  C367  1  0.73410000  0.23875000  0.76125000  1
  C  C368  1  0.54860000  0.47660000  0.23830000  1
  C  C369  1  0.73410000  0.47750000  0.23875000  1
  C  C370  1  0.54860000  0.76170000  0.52340000  1
  C  C371  1  0.73410000  0.76125000  0.52250000  1
  C  C372  1  0.54860000  0.76170000  0.23830000  1
  C  C373  1  0.73410000  0.76125000  0.23875000  1
  C  C374  1  0.45140000  0.76170000  0.23830000  1
  C  C375  1  0.26590000  0.76125000  0.23875000  1
  C  C376  1  0.45140000  0.76170000  0.52340000  1
  C  C377  1  0.26590000  0.76125000  0.52250000  1
  C  C378  1  0.45140000  0.47660000  0.23830000  1
  C  C379  1  0.26590000  0.47750000  0.23875000  1
  C  C380  1  0.45140000  0.23830000  0.76170000  1
  C  C381  1  0.26590000  0.23875000  0.76125000  1
  C  C382  1  0.45140000  0.23830000  0.47660000  1
  C  C383  1  0.26590000  0.23875000  0.47750000  1
  C  C384  1  0.45140000  0.52340000  0.76170000  1
  C  C385  1  0.26590000  0.52250000  0.76125000  1
  O  O386  1  0.91088000  0.48250000  0.58370000  1
  O  O387  1  0.84137000  0.53431000  0.59092000  1
  O  O388  1  0.91088000  0.10120000  0.51750000  1
  O  O389  1  0.84137000  0.05661000  0.46569000  1
  O  O390  1  0.91088000  0.41630000  0.89880000  1
  O  O391  1  0.84137000  0.40908000  0.94339000  1
  O  O392  1  0.91088000  0.51750000  0.41630000  1
  O  O393  1  0.84137000  0.46569000  0.40908000  1
  O  O394  1  0.91088000  0.89880000  0.48250000  1
  O  O395  1  0.84137000  0.94339000  0.53431000  1
  O  O396  1  0.91088000  0.58370000  0.10120000  1
  O  O397  1  0.84137000  0.59092000  0.05661000  1
  O  O398  1  0.08912000  0.89880000  0.41630000  1
  O  O399  1  0.15863000  0.94339000  0.40908000  1
  O  O400  1  0.08912000  0.58370000  0.48250000  1
  O  O401  1  0.15863000  0.59092000  0.53431000  1
  O  O402  1  0.08912000  0.51750000  0.10120000  1
  O  O403  1  0.15863000  0.46569000  0.05661000  1
  O  O404  1  0.08912000  0.10120000  0.58370000  1
  O  O405  1  0.15863000  0.05661000  0.59092000  1
  O  O406  1  0.08912000  0.41630000  0.51750000  1
  O  O407  1  0.15863000  0.40908000  0.46569000  1
  O  O408  1  0.08912000  0.48250000  0.89880000  1
  O  O409  1  0.15863000  0.53431000  0.94339000  1
  O  O410  1  0.08912000  0.51750000  0.41630000  1
  O  O411  1  0.15863000  0.46569000  0.40908000  1
  O  O412  1  0.08912000  0.89880000  0.48250000  1
  O  O413  1  0.15863000  0.94339000  0.53431000  1
  O  O414  1  0.08912000  0.58370000  0.10120000  1
  O  O415  1  0.15863000  0.59092000  0.05661000  1
  O  O416  1  0.08912000  0.48250000  0.58370000  1
  O  O417  1  0.15863000  0.53431000  0.59092000  1
  O  O418  1  0.08912000  0.10120000  0.51750000  1
  O  O419  1  0.15863000  0.05661000  0.46569000  1
  O  O420  1  0.08912000  0.41630000  0.89880000  1
  O  O421  1  0.15863000  0.40908000  0.94339000  1
  O  O422  1  0.91088000  0.10120000  0.58370000  1
  O  O423  1  0.84137000  0.05661000  0.59092000  1
  O  O424  1  0.91088000  0.41630000  0.51750000  1
  O  O425  1  0.84137000  0.40908000  0.46569000  1
  O  O426  1  0.91088000  0.48250000  0.89880000  1
  O  O427  1  0.84137000  0.53431000  0.94339000  1
  O  O428  1  0.91088000  0.89880000  0.41630000  1
  O  O429  1  0.84137000  0.94339000  0.40908000  1
  O  O430  1  0.91088000  0.58370000  0.48250000  1
  O  O431  1  0.84137000  0.59092000  0.53431000  1
  O  O432  1  0.91088000  0.51750000  0.10120000  1
  O  O433  1  0.84137000  0.46569000  0.05661000  1
  O  O434  1  0.88360000  0.48368000  0.51633000  1
  O  O435  1  0.88360000  0.03265000  0.51633000  1
  O  O436  1  0.88360000  0.48368000  0.96736000  1
  O  O437  1  0.88360000  0.51632000  0.48367000  1
  O  O438  1  0.88360000  0.96735000  0.48367000  1
  O  O439  1  0.88360000  0.51632000  0.03264000  1
  O  O440  1  0.11640000  0.96735000  0.48367000  1
  O  O441  1  0.11640000  0.51632000  0.48367000  1
  O  O442  1  0.11640000  0.51632000  0.03264000  1
  O  O443  1  0.11640000  0.03265000  0.51633000  1
  O  O444  1  0.11640000  0.48368000  0.51633000  1
  O  O445  1  0.11640000  0.48368000  0.96736000  1
  O  O446  1  0.00000000  0.52465000  0.55901000  1
  O  O447  1  0.00000000  0.03436000  0.47535000  1
  O  O448  1  0.00000000  0.44099000  0.96564000  1
  O  O449  1  0.00000000  0.47535000  0.44099000  1
  O  O450  1  0.00000000  0.96564000  0.52465000  1
  O  O451  1  0.00000000  0.55901000  0.03436000  1
  O  O452  1  0.00000000  0.96564000  0.44099000  1
  O  O453  1  0.00000000  0.55901000  0.52465000  1
  O  O454  1  0.00000000  0.47535000  0.03436000  1
  O  O455  1  0.00000000  0.03436000  0.55901000  1
  O  O456  1  0.00000000  0.44099000  0.47535000  1
  O  O457  1  0.00000000  0.52465000  0.96564000  1
  O  O458  1  0.82220000  0.52141000  0.76070000  1
  O  O459  1  0.82220000  0.23929000  0.47858000  1
  O  O460  1  0.82220000  0.23929000  0.76070000  1
  O  O461  1  0.82220000  0.47859000  0.23929000  1
  O  O462  1  0.82220000  0.76071000  0.52142000  1
  O  O463  1  0.82220000  0.76071000  0.23930000  1
  O  O464  1  0.17780000  0.76071000  0.23930000  1
  O  O465  1  0.17780000  0.76071000  0.52142000  1
  O  O466  1  0.17780000  0.47859000  0.23929000  1
  O  O467  1  0.17780000  0.23929000  0.76070000  1
  O  O468  1  0.17780000  0.23929000  0.47858000  1
  O  O469  1  0.17780000  0.52141000  0.76070000  1
