# generated using pymatgen
data_Zr3H22(C20O7)2
_symmetry_space_group_name_H-M   'P 1'
_cell_length_a   16.02120000
_cell_length_b   18.77810000
_cell_length_c   35.27450000
_cell_angle_alpha   90.00000000
_cell_angle_beta   90.00000000
_cell_angle_gamma   90.00000000
_symmetry_Int_Tables_number   1
_chemical_formula_structural   Zr3H22(C20O7)2
_chemical_formula_sum   'Zr12 H88 C160 O56'
_cell_volume   10612.25204268
_cell_formula_units_Z   4
loop_
 _symmetry_equiv_pos_site_id
 _symmetry_equiv_pos_as_xyz
  1  'x, y, z'
loop_
 _atom_site_type_symbol
 _atom_site_label
 _atom_site_symmetry_multiplicity
 _atom_site_fract_x
 _atom_site_fract_y
 _atom_site_fract_z
 _atom_site_occupancy
  Zr  Zr0  1  0.00000000  0.50000000  0.56883000  1
  Zr  Zr1  1  0.00000000  0.00000000  0.06883000  1
  Zr  Zr2  1  0.00000000  0.50000000  0.43117000  1
  Zr  Zr3  1  0.00000000  0.00000000  0.93117000  1
  Zr  Zr4  1  0.11063000  0.59419000  0.50000000  1
  Zr  Zr5  1  0.11063000  0.09419000  0.00000000  1
  Zr  Zr6  1  0.11063000  0.40581000  0.50000000  1
  Zr  Zr7  1  0.11063000  0.90581000  0.00000000  1
  Zr  Zr8  1  0.88937000  0.40581000  0.50000000  1
  Zr  Zr9  1  0.88937000  0.90581000  0.00000000  1
  Zr  Zr10  1  0.88937000  0.59419000  0.50000000  1
  Zr  Zr11  1  0.88937000  0.09419000  0.00000000  1
  H  H12  1  0.13600000  0.57890000  0.66320000  1
  H  H13  1  0.21000000  0.62300000  0.71410000  1
  H  H14  1  0.33240000  0.75830000  0.64430000  1
  H  H15  1  0.26250000  0.70890000  0.59300000  1
  H  H16  1  0.43750000  0.71230000  0.69700000  1
  H  H17  1  0.17710000  0.73480000  0.72910000  1
  H  H18  1  0.13600000  0.07890000  0.16320000  1
  H  H19  1  0.21000000  0.12300000  0.21410000  1
  H  H20  1  0.33240000  0.25830000  0.14430000  1
  H  H21  1  0.26250000  0.20890000  0.09300000  1
  H  H22  1  0.43750000  0.21230000  0.19700000  1
  H  H23  1  0.13600000  0.42110000  0.33680000  1
  H  H24  1  0.21000000  0.37700000  0.28590000  1
  H  H25  1  0.33240000  0.24170000  0.35570000  1
  H  H26  1  0.26250000  0.29110000  0.40700000  1
  H  H27  1  0.43750000  0.28770000  0.30300000  1
  H  H28  1  0.17710000  0.26520000  0.27090000  1
  H  H29  1  0.13600000  0.92110000  0.83680000  1
  H  H30  1  0.21000000  0.87700000  0.78590000  1
  H  H31  1  0.33240000  0.74170000  0.85570000  1
  H  H32  1  0.26250000  0.79110000  0.90700000  1
  H  H33  1  0.43750000  0.78770000  0.80300000  1
  H  H34  1  0.86400000  0.42110000  0.66320000  1
  H  H35  1  0.79000000  0.37700000  0.71410000  1
  H  H36  1  0.66760000  0.24170000  0.64430000  1
  H  H37  1  0.73750000  0.29110000  0.59300000  1
  H  H38  1  0.56250000  0.28770000  0.69700000  1
  H  H39  1  0.82290000  0.26520000  0.72910000  1
  H  H40  1  0.86400000  0.92110000  0.16320000  1
  H  H41  1  0.79000000  0.87700000  0.21410000  1
  H  H42  1  0.66760000  0.74170000  0.14430000  1
  H  H43  1  0.73750000  0.79110000  0.09300000  1
  H  H44  1  0.56250000  0.78770000  0.19700000  1
  H  H45  1  0.86400000  0.57890000  0.33680000  1
  H  H46  1  0.79000000  0.62300000  0.28590000  1
  H  H47  1  0.66760000  0.75830000  0.35570000  1
  H  H48  1  0.73750000  0.70890000  0.40700000  1
  H  H49  1  0.56250000  0.71230000  0.30300000  1
  H  H50  1  0.82290000  0.73480000  0.27090000  1
  H  H51  1  0.86400000  0.07890000  0.83680000  1
  H  H52  1  0.79000000  0.12300000  0.78590000  1
  H  H53  1  0.66760000  0.25830000  0.85570000  1
  H  H54  1  0.73750000  0.20890000  0.90700000  1
  H  H55  1  0.56250000  0.21230000  0.80300000  1
  H  H56  1  0.86400000  0.42110000  0.33680000  1
  H  H57  1  0.79000000  0.37700000  0.28590000  1
  H  H58  1  0.66760000  0.24170000  0.35570000  1
  H  H59  1  0.73750000  0.29110000  0.40700000  1
  H  H60  1  0.56250000  0.28770000  0.30300000  1
  H  H61  1  0.86400000  0.92110000  0.83680000  1
  H  H62  1  0.79000000  0.87700000  0.78590000  1
  H  H63  1  0.66760000  0.74170000  0.85570000  1
  H  H64  1  0.73750000  0.79110000  0.90700000  1
  H  H65  1  0.56250000  0.78770000  0.80300000  1
  H  H66  1  0.82290000  0.76520000  0.77090000  1
  H  H67  1  0.86400000  0.57890000  0.66320000  1
  H  H68  1  0.79000000  0.62300000  0.71410000  1
  H  H69  1  0.66760000  0.75830000  0.64430000  1
  H  H70  1  0.73750000  0.70890000  0.59300000  1
  H  H71  1  0.56250000  0.71230000  0.69700000  1
  H  H72  1  0.86400000  0.07890000  0.16320000  1
  H  H73  1  0.79000000  0.12300000  0.21410000  1
  H  H74  1  0.66760000  0.25830000  0.14430000  1
  H  H75  1  0.73750000  0.20890000  0.09300000  1
  H  H76  1  0.56250000  0.21230000  0.19700000  1
  H  H77  1  0.82290000  0.23480000  0.22910000  1
  H  H78  1  0.13600000  0.57890000  0.33680000  1
  H  H79  1  0.21000000  0.62300000  0.28590000  1
  H  H80  1  0.33240000  0.75830000  0.35570000  1
  H  H81  1  0.26250000  0.70890000  0.40700000  1
  H  H82  1  0.43750000  0.71230000  0.30300000  1
  H  H83  1  0.13600000  0.07890000  0.83680000  1
  H  H84  1  0.21000000  0.12300000  0.78590000  1
  H  H85  1  0.33240000  0.25830000  0.85570000  1
  H  H86  1  0.26250000  0.20890000  0.90700000  1
  H  H87  1  0.43750000  0.21230000  0.80300000  1
  H  H88  1  0.17710000  0.23480000  0.77090000  1
  H  H89  1  0.13600000  0.42110000  0.66320000  1
  H  H90  1  0.21000000  0.37700000  0.71410000  1
  H  H91  1  0.33240000  0.24170000  0.64430000  1
  H  H92  1  0.26250000  0.29110000  0.59300000  1
  H  H93  1  0.43750000  0.28770000  0.69700000  1
  H  H94  1  0.13600000  0.92110000  0.16320000  1
  H  H95  1  0.21000000  0.87700000  0.21410000  1
  H  H96  1  0.33240000  0.74170000  0.14430000  1
  H  H97  1  0.26250000  0.79110000  0.09300000  1
  H  H98  1  0.43750000  0.78770000  0.19700000  1
  H  H99  1  0.17710000  0.76520000  0.22910000  1
  C  C100  1  0.13920000  0.61240000  0.59157000  1
  C  C101  1  0.18860000  0.64350000  0.62332000  1
  C  C102  1  0.17540000  0.61610000  0.65947000  1
  C  C103  1  0.21870000  0.64230000  0.68951000  1
  C  C104  1  0.27620000  0.69770000  0.68446000  1
  C  C105  1  0.29210000  0.72200000  0.64829000  1
  C  C106  1  0.24950000  0.69360000  0.61798000  1
  C  C107  1  0.32260000  0.72730000  0.71848000  1
  C  C108  1  0.40810000  0.72780000  0.71890000  1
  C  C109  1  0.13920000  0.11240000  0.09157000  1
  C  C110  1  0.18860000  0.14350000  0.12332000  1
  C  C111  1  0.17540000  0.11610000  0.15947000  1
  C  C112  1  0.21870000  0.14230000  0.18951000  1
  C  C113  1  0.27620000  0.19770000  0.18446000  1
  C  C114  1  0.29210000  0.22200000  0.14829000  1
  C  C115  1  0.24950000  0.19360000  0.11798000  1
  C  C116  1  0.32260000  0.22730000  0.21848000  1
  C  C117  1  0.40810000  0.22780000  0.21890000  1
  C  C118  1  0.13920000  0.38760000  0.40843000  1
  C  C119  1  0.18860000  0.35650000  0.37668000  1
  C  C120  1  0.17540000  0.38390000  0.34053000  1
  C  C121  1  0.21870000  0.35770000  0.31049000  1
  C  C122  1  0.27620000  0.30230000  0.31554000  1
  C  C123  1  0.29210000  0.27800000  0.35171000  1
  C  C124  1  0.24950000  0.30640000  0.38202000  1
  C  C125  1  0.32260000  0.27270000  0.28152000  1
  C  C126  1  0.40810000  0.27220000  0.28110000  1
  C  C127  1  0.13920000  0.88760000  0.90843000  1
  C  C128  1  0.18860000  0.85650000  0.87668000  1
  C  C129  1  0.17540000  0.88390000  0.84053000  1
  C  C130  1  0.21870000  0.85770000  0.81049000  1
  C  C131  1  0.27620000  0.80230000  0.81554000  1
  C  C132  1  0.29210000  0.77800000  0.85171000  1
  C  C133  1  0.24950000  0.80640000  0.88202000  1
  C  C134  1  0.32260000  0.77270000  0.78152000  1
  C  C135  1  0.40810000  0.77220000  0.78110000  1
  C  C136  1  0.86080000  0.38760000  0.59157000  1
  C  C137  1  0.81140000  0.35650000  0.62332000  1
  C  C138  1  0.82460000  0.38390000  0.65947000  1
  C  C139  1  0.78130000  0.35770000  0.68951000  1
  C  C140  1  0.72380000  0.30230000  0.68446000  1
  C  C141  1  0.70790000  0.27800000  0.64829000  1
  C  C142  1  0.75050000  0.30640000  0.61798000  1
  C  C143  1  0.67740000  0.27270000  0.71848000  1
  C  C144  1  0.59190000  0.27220000  0.71890000  1
  C  C145  1  0.86080000  0.88760000  0.09157000  1
  C  C146  1  0.81140000  0.85650000  0.12332000  1
  C  C147  1  0.82460000  0.88390000  0.15947000  1
  C  C148  1  0.78130000  0.85770000  0.18951000  1
  C  C149  1  0.72380000  0.80230000  0.18446000  1
  C  C150  1  0.70790000  0.77800000  0.14829000  1
  C  C151  1  0.75050000  0.80640000  0.11798000  1
  C  C152  1  0.67740000  0.77270000  0.21848000  1
  C  C153  1  0.59190000  0.77220000  0.21890000  1
  C  C154  1  0.86080000  0.61240000  0.40843000  1
  C  C155  1  0.81140000  0.64350000  0.37668000  1
  C  C156  1  0.82460000  0.61610000  0.34053000  1
  C  C157  1  0.78130000  0.64230000  0.31049000  1
  C  C158  1  0.72380000  0.69770000  0.31554000  1
  C  C159  1  0.70790000  0.72200000  0.35171000  1
  C  C160  1  0.75050000  0.69360000  0.38202000  1
  C  C161  1  0.67740000  0.72730000  0.28152000  1
  C  C162  1  0.59190000  0.72780000  0.28110000  1
  C  C163  1  0.86080000  0.11240000  0.90843000  1
  C  C164  1  0.81140000  0.14350000  0.87668000  1
  C  C165  1  0.82460000  0.11610000  0.84053000  1
  C  C166  1  0.78130000  0.14230000  0.81049000  1
  C  C167  1  0.72380000  0.19770000  0.81554000  1
  C  C168  1  0.70790000  0.22200000  0.85171000  1
  C  C169  1  0.75050000  0.19360000  0.88202000  1
  C  C170  1  0.67740000  0.22730000  0.78152000  1
  C  C171  1  0.59190000  0.22780000  0.78110000  1
  C  C172  1  0.86080000  0.38760000  0.40843000  1
  C  C173  1  0.81140000  0.35650000  0.37668000  1
  C  C174  1  0.82460000  0.38390000  0.34053000  1
  C  C175  1  0.78130000  0.35770000  0.31049000  1
  C  C176  1  0.72380000  0.30230000  0.31554000  1
  C  C177  1  0.70790000  0.27800000  0.35171000  1
  C  C178  1  0.75050000  0.30640000  0.38202000  1
  C  C179  1  0.67740000  0.27270000  0.28152000  1
  C  C180  1  0.59190000  0.27220000  0.28110000  1
  C  C181  1  0.86080000  0.88760000  0.90843000  1
  C  C182  1  0.81140000  0.85650000  0.87668000  1
  C  C183  1  0.82460000  0.88390000  0.84053000  1
  C  C184  1  0.78130000  0.85770000  0.81049000  1
  C  C185  1  0.72380000  0.80230000  0.81554000  1
  C  C186  1  0.70790000  0.77800000  0.85171000  1
  C  C187  1  0.75050000  0.80640000  0.88202000  1
  C  C188  1  0.67740000  0.77270000  0.78152000  1
  C  C189  1  0.59190000  0.77220000  0.78110000  1
  C  C190  1  0.86080000  0.61240000  0.59157000  1
  C  C191  1  0.81140000  0.64350000  0.62332000  1
  C  C192  1  0.82460000  0.61610000  0.65947000  1
  C  C193  1  0.78130000  0.64230000  0.68951000  1
  C  C194  1  0.72380000  0.69770000  0.68446000  1
  C  C195  1  0.70790000  0.72200000  0.64829000  1
  C  C196  1  0.75050000  0.69360000  0.61798000  1
  C  C197  1  0.67740000  0.72730000  0.71848000  1
  C  C198  1  0.59190000  0.72780000  0.71890000  1
  C  C199  1  0.86080000  0.11240000  0.09157000  1
  C  C200  1  0.81140000  0.14350000  0.12332000  1
  C  C201  1  0.82460000  0.11610000  0.15947000  1
  C  C202  1  0.78130000  0.14230000  0.18951000  1
  C  C203  1  0.72380000  0.19770000  0.18446000  1
  C  C204  1  0.70790000  0.22200000  0.14829000  1
  C  C205  1  0.75050000  0.19360000  0.11798000  1
  C  C206  1  0.67740000  0.22730000  0.21848000  1
  C  C207  1  0.59190000  0.22780000  0.21890000  1
  C  C208  1  0.13920000  0.61240000  0.40843000  1
  C  C209  1  0.18860000  0.64350000  0.37668000  1
  C  C210  1  0.17540000  0.61610000  0.34053000  1
  C  C211  1  0.21870000  0.64230000  0.31049000  1
  C  C212  1  0.27620000  0.69770000  0.31554000  1
  C  C213  1  0.29210000  0.72200000  0.35171000  1
  C  C214  1  0.24950000  0.69360000  0.38202000  1
  C  C215  1  0.32260000  0.72730000  0.28152000  1
  C  C216  1  0.40810000  0.72780000  0.28110000  1
  C  C217  1  0.13920000  0.11240000  0.90843000  1
  C  C218  1  0.18860000  0.14350000  0.87668000  1
  C  C219  1  0.17540000  0.11610000  0.84053000  1
  C  C220  1  0.21870000  0.14230000  0.81049000  1
  C  C221  1  0.27620000  0.19770000  0.81554000  1
  C  C222  1  0.29210000  0.22200000  0.85171000  1
  C  C223  1  0.24950000  0.19360000  0.88202000  1
  C  C224  1  0.32260000  0.22730000  0.78152000  1
  C  C225  1  0.40810000  0.22780000  0.78110000  1
  C  C226  1  0.13920000  0.38760000  0.59157000  1
  C  C227  1  0.18860000  0.35650000  0.62332000  1
  C  C228  1  0.17540000  0.38390000  0.65947000  1
  C  C229  1  0.21870000  0.35770000  0.68951000  1
  C  C230  1  0.27620000  0.30230000  0.68446000  1
  C  C231  1  0.29210000  0.27800000  0.64829000  1
  C  C232  1  0.24950000  0.30640000  0.61798000  1
  C  C233  1  0.32260000  0.27270000  0.71848000  1
  C  C234  1  0.40810000  0.27220000  0.71890000  1
  C  C235  1  0.13920000  0.88760000  0.09157000  1
  C  C236  1  0.18860000  0.85650000  0.12332000  1
  C  C237  1  0.17540000  0.88390000  0.15947000  1
  C  C238  1  0.21870000  0.85770000  0.18951000  1
  C  C239  1  0.27620000  0.80230000  0.18446000  1
  C  C240  1  0.29210000  0.77800000  0.14829000  1
  C  C241  1  0.24950000  0.80640000  0.11798000  1
  C  C242  1  0.32260000  0.77270000  0.21848000  1
  C  C243  1  0.40810000  0.77220000  0.21890000  1
  C  C244  1  0.27930000  0.75000000  0.75000000  1
  C  C245  1  0.45210000  0.75000000  0.75000000  1
  C  C246  1  0.27930000  0.25000000  0.25000000  1
  C  C247  1  0.45210000  0.25000000  0.25000000  1
  C  C248  1  0.72070000  0.25000000  0.75000000  1
  C  C249  1  0.54790000  0.25000000  0.75000000  1
  C  C250  1  0.72070000  0.75000000  0.25000000  1
  C  C251  1  0.54790000  0.75000000  0.25000000  1
  C  C252  1  0.72070000  0.25000000  0.25000000  1
  C  C253  1  0.54790000  0.25000000  0.25000000  1
  C  C254  1  0.72070000  0.75000000  0.75000000  1
  C  C255  1  0.54790000  0.75000000  0.75000000  1
  C  C256  1  0.27930000  0.75000000  0.25000000  1
  C  C257  1  0.45210000  0.75000000  0.25000000  1
  C  C258  1  0.27930000  0.25000000  0.75000000  1
  C  C259  1  0.45210000  0.25000000  0.75000000  1
  O  O260  1  0.15775000  0.63110000  0.55759000  1
  O  O261  1  0.08261000  0.56996000  0.60075000  1
  O  O262  1  0.15775000  0.13110000  0.05759000  1
  O  O263  1  0.08261000  0.06996000  0.10075000  1
  O  O264  1  0.15775000  0.36890000  0.44241000  1
  O  O265  1  0.08261000  0.43004000  0.39925000  1
  O  O266  1  0.15775000  0.86890000  0.94241000  1
  O  O267  1  0.08261000  0.93004000  0.89925000  1
  O  O268  1  0.84225000  0.36890000  0.55759000  1
  O  O269  1  0.91739000  0.43004000  0.60075000  1
  O  O270  1  0.84225000  0.86890000  0.05759000  1
  O  O271  1  0.91739000  0.93004000  0.10075000  1
  O  O272  1  0.84225000  0.63110000  0.44241000  1
  O  O273  1  0.91739000  0.56996000  0.39925000  1
  O  O274  1  0.84225000  0.13110000  0.94241000  1
  O  O275  1  0.91739000  0.06996000  0.89925000  1
  O  O276  1  0.84225000  0.36890000  0.44241000  1
  O  O277  1  0.91739000  0.43004000  0.39925000  1
  O  O278  1  0.84225000  0.86890000  0.94241000  1
  O  O279  1  0.91739000  0.93004000  0.89925000  1
  O  O280  1  0.84225000  0.63110000  0.55759000  1
  O  O281  1  0.91739000  0.56996000  0.60075000  1
  O  O282  1  0.84225000  0.13110000  0.05759000  1
  O  O283  1  0.91739000  0.06996000  0.10075000  1
  O  O284  1  0.15775000  0.63110000  0.44241000  1
  O  O285  1  0.08261000  0.56996000  0.39925000  1
  O  O286  1  0.15775000  0.13110000  0.94241000  1
  O  O287  1  0.08261000  0.06996000  0.89925000  1
  O  O288  1  0.15775000  0.36890000  0.55759000  1
  O  O289  1  0.08261000  0.43004000  0.60075000  1
  O  O290  1  0.15775000  0.86890000  0.05759000  1
  O  O291  1  0.08261000  0.93004000  0.10075000  1
  O  O292  1  0.19450000  0.75000000  0.75000000  1
  O  O293  1  0.19450000  0.25000000  0.25000000  1
  O  O294  1  0.80550000  0.25000000  0.75000000  1
  O  O295  1  0.80550000  0.75000000  0.25000000  1
  O  O296  1  0.80550000  0.25000000  0.25000000  1
  O  O297  1  0.80550000  0.75000000  0.75000000  1
  O  O298  1  0.19450000  0.75000000  0.25000000  1
  O  O299  1  0.19450000  0.25000000  0.75000000  1
  O  O300  1  0.11040000  0.50000000  0.53314000  1
  O  O301  1  0.11040000  0.00000000  0.03314000  1
  O  O302  1  0.11040000  0.50000000  0.46686000  1
  O  O303  1  0.11040000  0.00000000  0.96686000  1
  O  O304  1  0.88960000  0.50000000  0.53314000  1
  O  O305  1  0.88960000  0.00000000  0.03314000  1
  O  O306  1  0.88960000  0.50000000  0.46686000  1
  O  O307  1  0.88960000  0.00000000  0.96686000  1
  O  O308  1  0.00000000  0.59390000  0.53342000  1
  O  O309  1  0.00000000  0.09390000  0.03342000  1
  O  O310  1  1.00000000  0.40610000  0.46658000  1
  O  O311  1  0.00000000  0.90610000  0.96658000  1
  O  O312  1  0.00000000  0.40610000  0.53342000  1
  O  O313  1  0.00000000  0.90610000  0.03342000  1
  O  O314  1  0.00000000  0.59390000  0.46658000  1
  O  O315  1  0.00000000  0.09390000  0.96658000  1
