# generated using pymatgen
data_Zr6H47C80(NO6)4
_symmetry_space_group_name_H-M   'P 1'
_cell_length_a   15.65840000
_cell_length_b   20.12350000
_cell_length_c   35.15690000
_cell_angle_alpha   90.00000000
_cell_angle_beta   90.00000000
_cell_angle_gamma   90.00000000
_symmetry_Int_Tables_number   1
_chemical_formula_structural   Zr6H47C80(NO6)4
_chemical_formula_sum   'Zr12 H94 C160 N8 O48'
_cell_volume   11078.00290837
_cell_formula_units_Z   2
loop_
 _symmetry_equiv_pos_site_id
 _symmetry_equiv_pos_as_xyz
  1  'x, y, z'
loop_
 _atom_site_type_symbol
 _atom_site_label
 _atom_site_symmetry_multiplicity
 _atom_site_fract_x
 _atom_site_fract_y
 _atom_site_fract_z
 _atom_site_occupancy
  Zr  Zr0  1  0.50000000  0.50000000  0.56909000  1
  Zr  Zr1  1  0.50000000  0.00000000  0.06909000  1
  Zr  Zr2  1  0.50000000  0.50000000  0.43091000  1
  Zr  Zr3  1  0.50000000  0.00000000  0.93091000  1
  Zr  Zr4  1  0.38676000  0.41170000  0.50000000  1
  Zr  Zr5  1  0.38676000  0.91170000  0.00000000  1
  Zr  Zr6  1  0.38676000  0.58830000  0.50000000  1
  Zr  Zr7  1  0.38676000  0.08830000  0.00000000  1
  Zr  Zr8  1  0.61324000  0.41170000  0.50000000  1
  Zr  Zr9  1  0.61324000  0.91170000  0.00000000  1
  Zr  Zr10  1  0.61324000  0.58830000  0.50000000  1
  Zr  Zr11  1  0.61324000  0.08830000  0.00000000  1
  H  H12  1  0.75640000  0.70160000  0.59340000  1
  H  H13  1  0.93540000  0.70820000  0.69800000  1
  H  H14  1  0.70710000  0.62630000  0.71570000  1
  H  H15  1  0.82690000  0.75190000  0.64490000  1
  H  H16  1  0.63670000  0.57800000  0.66440000  1
  H  H17  1  0.75640000  0.20160000  0.09340000  1
  H  H18  1  0.93540000  0.20820000  0.19800000  1
  H  H19  1  0.70710000  0.12630000  0.21570000  1
  H  H20  1  0.82690000  0.25190000  0.14490000  1
  H  H21  1  0.63670000  0.07800000  0.16440000  1
  H  H22  1  0.75640000  0.29840000  0.40660000  1
  H  H23  1  0.93540000  0.29180000  0.30200000  1
  H  H24  1  0.70710000  0.37370000  0.28430000  1
  H  H25  1  0.82690000  0.24810000  0.35510000  1
  H  H26  1  0.63670000  0.42200000  0.33560000  1
  H  H27  1  0.75640000  0.79840000  0.90660000  1
  H  H28  1  0.93540000  0.79180000  0.80200000  1
  H  H29  1  0.70710000  0.87370000  0.78430000  1
  H  H30  1  0.82690000  0.74810000  0.85510000  1
  H  H31  1  0.63670000  0.92200000  0.83560000  1
  H  H32  1  0.24360000  0.70160000  0.40660000  1
  H  H33  1  0.06460000  0.70820000  0.30200000  1
  H  H34  1  0.29290000  0.62630000  0.28430000  1
  H  H35  1  0.17310000  0.75190000  0.35510000  1
  H  H36  1  0.36330000  0.57800000  0.33560000  1
  H  H37  1  0.24360000  0.20160000  0.90660000  1
  H  H38  1  0.06460000  0.20820000  0.80200000  1
  H  H39  1  0.29290000  0.12630000  0.78430000  1
  H  H40  1  0.17310000  0.25190000  0.85510000  1
  H  H41  1  0.36330000  0.07800000  0.83560000  1
  H  H42  1  0.24360000  0.29840000  0.59340000  1
  H  H43  1  0.06460000  0.29180000  0.69800000  1
  H  H44  1  0.29290000  0.37370000  0.71570000  1
  H  H45  1  0.17310000  0.24810000  0.64490000  1
  H  H46  1  0.36330000  0.42200000  0.66440000  1
  H  H47  1  0.24360000  0.79840000  0.09340000  1
  H  H48  1  0.06460000  0.79180000  0.19800000  1
  H  H49  1  0.29290000  0.87370000  0.21570000  1
  H  H50  1  0.17310000  0.74810000  0.14490000  1
  H  H51  1  0.36330000  0.92200000  0.16440000  1
  H  H52  1  0.24360000  0.29840000  0.40660000  1
  H  H53  1  0.06460000  0.29180000  0.30200000  1
  H  H54  1  0.29290000  0.37370000  0.28430000  1
  H  H55  1  0.17310000  0.24810000  0.35510000  1
  H  H56  1  0.36330000  0.42200000  0.33560000  1
  H  H57  1  0.24360000  0.79840000  0.90660000  1
  H  H58  1  0.06460000  0.79180000  0.80200000  1
  H  H59  1  0.29290000  0.87370000  0.78430000  1
  H  H60  1  0.17310000  0.74810000  0.85510000  1
  H  H61  1  0.36330000  0.92200000  0.83560000  1
  H  H62  1  0.24360000  0.70160000  0.59340000  1
  H  H63  1  0.06460000  0.70820000  0.69800000  1
  H  H64  1  0.29290000  0.62630000  0.71570000  1
  H  H65  1  0.17310000  0.75190000  0.64490000  1
  H  H66  1  0.36330000  0.57800000  0.66440000  1
  H  H67  1  0.24360000  0.20160000  0.09340000  1
  H  H68  1  0.06460000  0.20820000  0.19800000  1
  H  H69  1  0.29290000  0.12630000  0.21570000  1
  H  H70  1  0.17310000  0.25190000  0.14490000  1
  H  H71  1  0.36330000  0.07800000  0.16440000  1
  H  H72  1  0.75640000  0.29840000  0.59340000  1
  H  H73  1  0.93540000  0.29180000  0.69800000  1
  H  H74  1  0.70710000  0.37370000  0.71570000  1
  H  H75  1  0.82690000  0.24810000  0.64490000  1
  H  H76  1  0.63670000  0.42200000  0.66440000  1
  H  H77  1  0.75640000  0.79840000  0.09340000  1
  H  H78  1  0.93540000  0.79180000  0.19800000  1
  H  H79  1  0.70710000  0.87370000  0.21570000  1
  H  H80  1  0.82690000  0.74810000  0.14490000  1
  H  H81  1  0.63670000  0.92200000  0.16440000  1
  H  H82  1  0.75640000  0.70160000  0.40660000  1
  H  H83  1  0.93540000  0.70820000  0.30200000  1
  H  H84  1  0.70710000  0.62630000  0.28430000  1
  H  H85  1  0.82690000  0.75190000  0.35510000  1
  H  H86  1  0.63670000  0.57800000  0.33560000  1
  H  H87  1  0.75640000  0.20160000  0.90660000  1
  H  H88  1  0.93540000  0.20820000  0.80200000  1
  H  H89  1  0.70710000  0.12630000  0.78430000  1
  H  H90  1  0.82690000  0.25190000  0.85510000  1
  H  H91  1  0.63670000  0.07800000  0.83560000  1
  H  H92  1  0.34123000  0.22400000  0.77578000  1
  H  H93  1  0.34123000  0.30200000  0.75000000  1
  H  H94  1  0.65877000  0.77600000  0.77578000  1
  H  H95  1  0.65877000  0.69800000  0.75000000  1
  H  H96  1  0.65877000  0.27600000  0.27578000  1
  H  H97  1  0.65877000  0.19800000  0.25000000  1
  H  H98  1  0.34123000  0.72400000  0.27578000  1
  H  H99  1  0.34123000  0.80200000  0.25000000  1
  H  H100  1  0.34123000  0.22400000  0.27578000  1
  H  H101  1  0.34123000  0.30200000  0.25000000  1
  H  H102  1  0.65877000  0.27600000  0.77578000  1
  H  H103  1  0.65877000  0.19800000  0.75000000  1
  H  H104  1  0.65877000  0.77600000  0.27578000  1
  H  H105  1  0.65877000  0.69800000  0.25000000  1
  C  C106  1  0.64080000  0.60640000  0.59172000  1
  C  C107  1  0.77260000  0.69360000  0.68585000  1
  C  C108  1  0.81770000  0.72390000  0.71914000  1
  C  C109  1  0.68900000  0.63820000  0.62387000  1
  C  C110  1  0.74500000  0.68670000  0.61858000  1
  C  C111  1  0.90550000  0.72500000  0.71941000  1
  C  C112  1  0.71720000  0.64270000  0.69079000  1
  C  C113  1  0.78790000  0.71650000  0.64919000  1
  C  C114  1  0.67500000  0.61400000  0.66038000  1
  C  C115  1  0.64080000  0.10640000  0.09172000  1
  C  C116  1  0.77260000  0.19360000  0.18585000  1
  C  C117  1  0.81770000  0.22390000  0.21914000  1
  C  C118  1  0.68900000  0.13820000  0.12387000  1
  C  C119  1  0.74500000  0.18670000  0.11858000  1
  C  C120  1  0.90550000  0.22500000  0.21941000  1
  C  C121  1  0.71720000  0.14270000  0.19079000  1
  C  C122  1  0.78790000  0.21650000  0.14919000  1
  C  C123  1  0.67500000  0.11400000  0.16038000  1
  C  C124  1  0.64080000  0.39360000  0.40828000  1
  C  C125  1  0.77260000  0.30640000  0.31415000  1
  C  C126  1  0.81770000  0.27610000  0.28086000  1
  C  C127  1  0.68900000  0.36180000  0.37613000  1
  C  C128  1  0.74500000  0.31330000  0.38142000  1
  C  C129  1  0.90550000  0.27500000  0.28059000  1
  C  C130  1  0.71720000  0.35730000  0.30921000  1
  C  C131  1  0.78790000  0.28350000  0.35081000  1
  C  C132  1  0.67500000  0.38600000  0.33962000  1
  C  C133  1  0.64080000  0.89360000  0.90828000  1
  C  C134  1  0.77260000  0.80640000  0.81415000  1
  C  C135  1  0.81770000  0.77610000  0.78086000  1
  C  C136  1  0.68900000  0.86180000  0.87613000  1
  C  C137  1  0.74500000  0.81330000  0.88142000  1
  C  C138  1  0.90550000  0.77500000  0.78059000  1
  C  C139  1  0.71720000  0.85730000  0.80921000  1
  C  C140  1  0.78790000  0.78350000  0.85081000  1
  C  C141  1  0.67500000  0.88600000  0.83962000  1
  C  C142  1  0.35920000  0.60640000  0.40828000  1
  C  C143  1  0.22740000  0.69360000  0.31415000  1
  C  C144  1  0.18230000  0.72390000  0.28086000  1
  C  C145  1  0.31100000  0.63820000  0.37613000  1
  C  C146  1  0.25500000  0.68670000  0.38142000  1
  C  C147  1  0.09450000  0.72500000  0.28059000  1
  C  C148  1  0.28280000  0.64270000  0.30921000  1
  C  C149  1  0.21210000  0.71650000  0.35081000  1
  C  C150  1  0.32500000  0.61400000  0.33962000  1
  C  C151  1  0.35920000  0.10640000  0.90828000  1
  C  C152  1  0.22740000  0.19360000  0.81415000  1
  C  C153  1  0.18230000  0.22390000  0.78086000  1
  C  C154  1  0.31100000  0.13820000  0.87613000  1
  C  C155  1  0.25500000  0.18670000  0.88142000  1
  C  C156  1  0.09450000  0.22500000  0.78059000  1
  C  C157  1  0.28280000  0.14270000  0.80921000  1
  C  C158  1  0.21210000  0.21650000  0.85081000  1
  C  C159  1  0.32500000  0.11400000  0.83962000  1
  C  C160  1  0.35920000  0.39360000  0.59172000  1
  C  C161  1  0.22740000  0.30640000  0.68585000  1
  C  C162  1  0.18230000  0.27610000  0.71914000  1
  C  C163  1  0.31100000  0.36180000  0.62387000  1
  C  C164  1  0.25500000  0.31330000  0.61858000  1
  C  C165  1  0.09450000  0.27500000  0.71941000  1
  C  C166  1  0.28280000  0.35730000  0.69079000  1
  C  C167  1  0.21210000  0.28350000  0.64919000  1
  C  C168  1  0.32500000  0.38600000  0.66038000  1
  C  C169  1  0.35920000  0.89360000  0.09172000  1
  C  C170  1  0.22740000  0.80640000  0.18585000  1
  C  C171  1  0.18230000  0.77610000  0.21914000  1
  C  C172  1  0.31100000  0.86180000  0.12387000  1
  C  C173  1  0.25500000  0.81330000  0.11858000  1
  C  C174  1  0.09450000  0.77500000  0.21941000  1
  C  C175  1  0.28280000  0.85730000  0.19079000  1
  C  C176  1  0.21210000  0.78350000  0.14919000  1
  C  C177  1  0.32500000  0.88600000  0.16038000  1
  C  C178  1  0.35920000  0.39360000  0.40828000  1
  C  C179  1  0.22740000  0.30640000  0.31415000  1
  C  C180  1  0.18230000  0.27610000  0.28086000  1
  C  C181  1  0.31100000  0.36180000  0.37613000  1
  C  C182  1  0.25500000  0.31330000  0.38142000  1
  C  C183  1  0.09450000  0.27500000  0.28059000  1
  C  C184  1  0.28280000  0.35730000  0.30921000  1
  C  C185  1  0.21210000  0.28350000  0.35081000  1
  C  C186  1  0.32500000  0.38600000  0.33962000  1
  C  C187  1  0.35920000  0.89360000  0.90828000  1
  C  C188  1  0.22740000  0.80640000  0.81415000  1
  C  C189  1  0.18230000  0.77610000  0.78086000  1
  C  C190  1  0.31100000  0.86180000  0.87613000  1
  C  C191  1  0.25500000  0.81330000  0.88142000  1
  C  C192  1  0.09450000  0.77500000  0.78059000  1
  C  C193  1  0.28280000  0.85730000  0.80921000  1
  C  C194  1  0.21210000  0.78350000  0.85081000  1
  C  C195  1  0.32500000  0.88600000  0.83962000  1
  C  C196  1  0.35920000  0.60640000  0.59172000  1
  C  C197  1  0.22740000  0.69360000  0.68585000  1
  C  C198  1  0.18230000  0.72390000  0.71914000  1
  C  C199  1  0.31100000  0.63820000  0.62387000  1
  C  C200  1  0.25500000  0.68670000  0.61858000  1
  C  C201  1  0.09450000  0.72500000  0.71941000  1
  C  C202  1  0.28280000  0.64270000  0.69079000  1
  C  C203  1  0.21210000  0.71650000  0.64919000  1
  C  C204  1  0.32500000  0.61400000  0.66038000  1
  C  C205  1  0.35920000  0.10640000  0.09172000  1
  C  C206  1  0.22740000  0.19360000  0.18585000  1
  C  C207  1  0.18230000  0.22390000  0.21914000  1
  C  C208  1  0.31100000  0.13820000  0.12387000  1
  C  C209  1  0.25500000  0.18670000  0.11858000  1
  C  C210  1  0.09450000  0.22500000  0.21941000  1
  C  C211  1  0.28280000  0.14270000  0.19079000  1
  C  C212  1  0.21210000  0.21650000  0.14919000  1
  C  C213  1  0.32500000  0.11400000  0.16038000  1
  C  C214  1  0.64080000  0.39360000  0.59172000  1
  C  C215  1  0.77260000  0.30640000  0.68585000  1
  C  C216  1  0.81770000  0.27610000  0.71914000  1
  C  C217  1  0.68900000  0.36180000  0.62387000  1
  C  C218  1  0.74500000  0.31330000  0.61858000  1
  C  C219  1  0.90550000  0.27500000  0.71941000  1
  C  C220  1  0.71720000  0.35730000  0.69079000  1
  C  C221  1  0.78790000  0.28350000  0.64919000  1
  C  C222  1  0.67500000  0.38600000  0.66038000  1
  C  C223  1  0.64080000  0.89360000  0.09172000  1
  C  C224  1  0.77260000  0.80640000  0.18585000  1
  C  C225  1  0.81770000  0.77610000  0.21914000  1
  C  C226  1  0.68900000  0.86180000  0.12387000  1
  C  C227  1  0.74500000  0.81330000  0.11858000  1
  C  C228  1  0.90550000  0.77500000  0.21941000  1
  C  C229  1  0.71720000  0.85730000  0.19079000  1
  C  C230  1  0.78790000  0.78350000  0.14919000  1
  C  C231  1  0.67500000  0.88600000  0.16038000  1
  C  C232  1  0.64080000  0.60640000  0.40828000  1
  C  C233  1  0.77260000  0.69360000  0.31415000  1
  C  C234  1  0.81770000  0.72390000  0.28086000  1
  C  C235  1  0.68900000  0.63820000  0.37613000  1
  C  C236  1  0.74500000  0.68670000  0.38142000  1
  C  C237  1  0.90550000  0.72500000  0.28059000  1
  C  C238  1  0.71720000  0.64270000  0.30921000  1
  C  C239  1  0.78790000  0.71650000  0.35081000  1
  C  C240  1  0.67500000  0.61400000  0.33962000  1
  C  C241  1  0.64080000  0.10640000  0.90828000  1
  C  C242  1  0.77260000  0.19360000  0.81415000  1
  C  C243  1  0.81770000  0.22390000  0.78086000  1
  C  C244  1  0.68900000  0.13820000  0.87613000  1
  C  C245  1  0.74500000  0.18670000  0.88142000  1
  C  C246  1  0.90550000  0.22500000  0.78059000  1
  C  C247  1  0.71720000  0.14270000  0.80921000  1
  C  C248  1  0.78790000  0.21650000  0.85081000  1
  C  C249  1  0.67500000  0.11400000  0.83962000  1
  C  C250  1  0.77160000  0.75000000  0.75000000  1
  C  C251  1  0.95240000  0.75000000  0.75000000  1
  C  C252  1  0.77160000  0.25000000  0.25000000  1
  C  C253  1  0.95240000  0.25000000  0.25000000  1
  C  C254  1  0.22840000  0.75000000  0.25000000  1
  C  C255  1  0.04760000  0.75000000  0.25000000  1
  C  C256  1  0.22840000  0.25000000  0.75000000  1
  C  C257  1  0.04760000  0.25000000  0.75000000  1
  C  C258  1  0.22840000  0.25000000  0.25000000  1
  C  C259  1  0.04760000  0.25000000  0.25000000  1
  C  C260  1  0.22840000  0.75000000  0.75000000  1
  C  C261  1  0.04760000  0.75000000  0.75000000  1
  C  C262  1  0.77160000  0.25000000  0.75000000  1
  C  C263  1  0.95240000  0.25000000  0.75000000  1
  C  C264  1  0.77160000  0.75000000  0.25000000  1
  C  C265  1  0.95240000  0.75000000  0.25000000  1
  N  N266  1  0.68240000  0.75000000  0.75000000  1
  N  N267  1  0.68240000  0.25000000  0.25000000  1
  N  N268  1  0.31760000  0.75000000  0.25000000  1
  N  N269  1  0.31760000  0.25000000  0.75000000  1
  N  N270  1  0.31760000  0.25000000  0.25000000  1
  N  N271  1  0.31760000  0.75000000  0.75000000  1
  N  N272  1  0.68240000  0.25000000  0.75000000  1
  N  N273  1  0.68240000  0.75000000  0.25000000  1
  O  O274  1  0.58419000  0.56571000  0.60124000  1
  O  O275  1  0.65951000  0.62345000  0.55818000  1
  O  O276  1  0.58419000  0.06571000  0.10124000  1
  O  O277  1  0.65951000  0.12345000  0.05818000  1
  O  O278  1  0.58419000  0.43429000  0.39876000  1
  O  O279  1  0.65951000  0.37655000  0.44182000  1
  O  O280  1  0.58419000  0.93429000  0.89876000  1
  O  O281  1  0.65951000  0.87655000  0.94182000  1
  O  O282  1  0.41581000  0.56571000  0.39876000  1
  O  O283  1  0.34049000  0.62345000  0.44182000  1
  O  O284  1  0.41581000  0.06571000  0.89876000  1
  O  O285  1  0.34049000  0.12345000  0.94182000  1
  O  O286  1  0.41581000  0.43429000  0.60124000  1
  O  O287  1  0.34049000  0.37655000  0.55818000  1
  O  O288  1  0.41581000  0.93429000  0.10124000  1
  O  O289  1  0.34049000  0.87655000  0.05818000  1
  O  O290  1  0.41581000  0.43429000  0.39876000  1
  O  O291  1  0.34049000  0.37655000  0.44182000  1
  O  O292  1  0.41581000  0.93429000  0.89876000  1
  O  O293  1  0.34049000  0.87655000  0.94182000  1
  O  O294  1  0.41581000  0.56571000  0.60124000  1
  O  O295  1  0.34049000  0.62345000  0.55818000  1
  O  O296  1  0.41581000  0.06571000  0.10124000  1
  O  O297  1  0.34049000  0.12345000  0.05818000  1
  O  O298  1  0.58419000  0.43429000  0.60124000  1
  O  O299  1  0.65951000  0.37655000  0.55818000  1
  O  O300  1  0.58419000  0.93429000  0.10124000  1
  O  O301  1  0.65951000  0.87655000  0.05818000  1
  O  O302  1  0.58419000  0.56571000  0.39876000  1
  O  O303  1  0.65951000  0.62345000  0.44182000  1
  O  O304  1  0.58419000  0.06571000  0.89876000  1
  O  O305  1  0.65951000  0.12345000  0.94182000  1
  O  O306  1  0.50000000  0.41010000  0.53397000  1
  O  O307  1  0.50000000  0.91010000  0.03397000  1
  O  O308  1  0.50000000  0.58990000  0.46603000  1
  O  O309  1  0.50000000  0.08990000  0.96603000  1
  O  O310  1  0.50000000  0.41010000  0.46603000  1
  O  O311  1  0.50000000  0.91010000  0.96603000  1
  O  O312  1  0.50000000  0.58990000  0.53397000  1
  O  O313  1  0.50000000  0.08990000  0.03397000  1
  O  O314  1  0.38580000  0.50000000  0.53370000  1
  O  O315  1  0.38580000  0.00000000  0.03370000  1
  O  O316  1  0.38580000  0.50000000  0.46630000  1
  O  O317  1  0.38580000  0.00000000  0.96630000  1
  O  O318  1  0.61420000  0.50000000  0.46630000  1
  O  O319  1  0.61420000  0.00000000  0.96630000  1
  O  O320  1  0.61420000  0.50000000  0.53370000  1
  O  O321  1  0.61420000  0.00000000  0.03370000  1
