# generated using pymatgen
data_Zr3H24C40(NO6)2
_symmetry_space_group_name_H-M   'P 1'
_cell_length_a   14.40790000
_cell_length_b   16.18050000
_cell_length_c   19.60410548
_cell_angle_alpha   90.00000000
_cell_angle_beta   111.55976226
_cell_angle_gamma   90.00000000
_symmetry_Int_Tables_number   1
_chemical_formula_structural   Zr3H24C40(NO6)2
_chemical_formula_sum   'Zr6 H48 C80 N4 O24'
_cell_volume   4250.48850063
_cell_formula_units_Z   2
loop_
 _symmetry_equiv_pos_site_id
 _symmetry_equiv_pos_as_xyz
  1  'x, y, z'
loop_
 _atom_site_type_symbol
 _atom_site_label
 _atom_site_symmetry_multiplicity
 _atom_site_fract_x
 _atom_site_fract_y
 _atom_site_fract_z
 _atom_site_occupancy
  C  C0  1  0.54410000  0.09060000  0.56180000  1
  C  C1  1  0.71500000  0.30860000  0.76000000  1
  C  C2  1  0.60800000  0.22260000  0.63600000  1
  C  C3  1  0.65060000  0.25610000  0.76020000  1
  C  C4  1  0.59940000  0.20960000  0.69660000  1
  C  C5  1  0.54480000  0.17540000  0.56420000  1
  C  C6  1  0.72590000  0.32070000  0.69360000  1
  C  C7  1  0.68170000  0.28020000  0.63040000  1
  C  C8  1  0.77460000  0.35850000  0.82640000  1
  C  C9  1  0.50000000  0.04820000  0.50000000  1
  C  C10  1  0.50000000  0.21930000  0.50000000  1
  C  C11  1  0.45590000  0.09060000  0.43820000  1
  C  C12  1  0.28500000  0.30860000  0.24000000  1
  C  C13  1  0.39200000  0.22260000  0.36400000  1
  C  C14  1  0.34940000  0.25610000  0.23980000  1
  C  C15  1  0.40060000  0.20960000  0.30340000  1
  C  C16  1  0.45520000  0.17540000  0.43580000  1
  C  C17  1  0.27410000  0.32070000  0.30640000  1
  C  C18  1  0.31830000  0.28020000  0.36960000  1
  C  C19  1  0.22540000  0.35850000  0.17360000  1
  C  C20  1  0.98230000  0.90940000  0.43820000  1
  C  C21  1  0.95500000  0.69140000  0.24000000  1
  C  C22  1  0.97200000  0.77740000  0.36400000  1
  C  C23  1  0.89040000  0.74390000  0.23980000  1
  C  C24  1  0.90280000  0.79040000  0.30340000  1
  C  C25  1  0.98060000  0.82460000  0.43580000  1
  C  C26  1  0.03230000  0.67930000  0.30640000  1
  C  C27  1  0.05130000  0.71980000  0.36960000  1
  C  C28  1  0.94820000  0.64150000  0.17360000  1
  C  C29  1  0.00000000  0.95180000  0.50000000  1
  C  C30  1  0.00000000  0.78070000  0.50000000  1
  C  C31  1  0.01770000  0.90940000  0.56180000  1
  C  C32  1  0.04500000  0.69140000  0.76000000  1
  C  C33  1  0.02800000  0.77740000  0.63600000  1
  C  C34  1  0.10960000  0.74390000  0.76020000  1
  C  C35  1  0.09720000  0.79040000  0.69660000  1
  C  C36  1  0.01940000  0.82460000  0.56420000  1
  C  C37  1  0.96770000  0.67930000  0.69360000  1
  C  C38  1  0.94870000  0.71980000  0.63040000  1
  C  C39  1  0.05180000  0.64150000  0.82640000  1
  C  C40  1  0.45590000  0.90940000  0.43820000  1
  C  C41  1  0.28500000  0.69140000  0.24000000  1
  C  C42  1  0.39200000  0.77740000  0.36400000  1
  C  C43  1  0.34940000  0.74390000  0.23980000  1
  C  C44  1  0.40060000  0.79040000  0.30340000  1
  C  C45  1  0.45520000  0.82460000  0.43580000  1
  C  C46  1  0.27410000  0.67930000  0.30640000  1
  C  C47  1  0.31830000  0.71980000  0.36960000  1
  C  C48  1  0.22540000  0.64150000  0.17360000  1
  C  C49  1  0.50000000  0.95180000  0.50000000  1
  C  C50  1  0.50000000  0.78070000  0.50000000  1
  C  C51  1  0.54410000  0.90940000  0.56180000  1
  C  C52  1  0.71500000  0.69140000  0.76000000  1
  C  C53  1  0.60800000  0.77740000  0.63600000  1
  C  C54  1  0.65060000  0.74390000  0.76020000  1
  C  C55  1  0.59940000  0.79040000  0.69660000  1
  C  C56  1  0.54480000  0.82460000  0.56420000  1
  C  C57  1  0.72590000  0.67930000  0.69360000  1
  C  C58  1  0.68170000  0.71980000  0.63040000  1
  C  C59  1  0.77460000  0.64150000  0.82640000  1
  C  C60  1  0.01770000  0.09060000  0.56180000  1
  C  C61  1  0.04500000  0.30860000  0.76000000  1
  C  C62  1  0.02800000  0.22260000  0.63600000  1
  C  C63  1  0.10960000  0.25610000  0.76020000  1
  C  C64  1  0.09720000  0.20960000  0.69660000  1
  C  C65  1  0.01940000  0.17540000  0.56420000  1
  C  C66  1  0.96770000  0.32070000  0.69360000  1
  C  C67  1  0.94870000  0.28020000  0.63040000  1
  C  C68  1  0.05180000  0.35850000  0.82640000  1
  C  C69  1  0.00000000  0.04820000  0.50000000  1
  C  C70  1  0.00000000  0.21930000  0.50000000  1
  C  C71  1  0.98230000  0.09060000  0.43820000  1
  C  C72  1  0.95500000  0.30860000  0.24000000  1
  C  C73  1  0.97200000  0.22260000  0.36400000  1
  C  C74  1  0.89040000  0.25610000  0.23980000  1
  C  C75  1  0.90280000  0.20960000  0.30340000  1
  C  C76  1  0.98060000  0.17540000  0.43580000  1
  C  C77  1  0.03230000  0.32070000  0.30640000  1
  C  C78  1  0.05130000  0.28020000  0.36960000  1
  C  C79  1  0.94820000  0.35850000  0.17360000  1
  H  H80  1  0.57640000  0.06090000  0.60600000  1
  H  H81  1  0.63650000  0.24780000  0.80340000  1
  H  H82  1  0.55670000  0.16630000  0.69980000  1
  H  H83  1  0.47120000  0.33390000  0.45880000  1
  H  H84  1  0.77050000  0.36350000  0.69260000  1
  H  H85  1  0.69680000  0.28800000  0.58760000  1
  H  H86  1  0.42360000  0.06090000  0.39400000  1
  H  H87  1  0.36350000  0.24780000  0.19660000  1
  H  H88  1  0.44330000  0.16630000  0.30020000  1
  H  H89  1  0.52880000  0.33390000  0.54120000  1
  H  H90  1  0.22950000  0.36350000  0.30740000  1
  H  H91  1  0.30320000  0.28800000  0.41240000  1
  H  H92  1  0.97040000  0.93910000  0.39400000  1
  H  H93  1  0.83310000  0.75220000  0.19660000  1
  H  H94  1  0.85690000  0.83370000  0.30020000  1
  H  H95  1  0.01240000  0.66610000  0.54120000  1
  H  H96  1  0.07790000  0.63650000  0.30740000  1
  H  H97  1  0.10920000  0.71200000  0.41240000  1
  H  H98  1  0.02960000  0.93910000  0.60600000  1
  H  H99  1  0.16690000  0.75220000  0.80340000  1
  H  H100  1  0.14310000  0.83370000  0.69980000  1
  H  H101  1  0.98760000  0.66610000  0.45880000  1
  H  H102  1  0.92210000  0.63650000  0.69260000  1
  H  H103  1  0.89080000  0.71200000  0.58760000  1
  H  H104  1  0.42360000  0.93910000  0.39400000  1
  H  H105  1  0.36350000  0.75220000  0.19660000  1
  H  H106  1  0.44330000  0.83370000  0.30020000  1
  H  H107  1  0.52880000  0.66610000  0.54120000  1
  H  H108  1  0.22950000  0.63650000  0.30740000  1
  H  H109  1  0.30320000  0.71200000  0.41240000  1
  H  H110  1  0.57640000  0.93910000  0.60600000  1
  H  H111  1  0.63650000  0.75220000  0.80340000  1
  H  H112  1  0.55670000  0.83370000  0.69980000  1
  H  H113  1  0.47120000  0.66610000  0.45880000  1
  H  H114  1  0.77050000  0.63650000  0.69260000  1
  H  H115  1  0.69680000  0.71200000  0.58760000  1
  H  H116  1  0.02960000  0.06090000  0.60600000  1
  H  H117  1  0.16690000  0.24780000  0.80340000  1
  H  H118  1  0.14310000  0.16630000  0.69980000  1
  H  H119  1  0.98760000  0.33390000  0.45880000  1
  H  H120  1  0.92210000  0.36350000  0.69260000  1
  H  H121  1  0.89080000  0.28800000  0.58760000  1
  H  H122  1  0.97040000  0.06090000  0.39400000  1
  H  H123  1  0.83310000  0.24780000  0.19660000  1
  H  H124  1  0.85690000  0.16630000  0.30020000  1
  H  H125  1  0.01240000  0.33390000  0.54120000  1
  H  H126  1  0.07790000  0.36350000  0.30740000  1
  H  H127  1  0.10920000  0.28800000  0.41240000  1
  N  N128  1  0.50000000  0.30670000  0.50000000  1
  N  N129  1  0.00000000  0.69330000  0.50000000  1
  N  N130  1  0.50000000  0.69330000  0.50000000  1
  N  N131  1  0.00000000  0.30670000  0.50000000  1
  O  O132  1  0.77420000  0.33770000  0.89000000  1
  O  O133  1  0.81808000  0.41990000  0.80696000  1
  O  O134  1  0.97050000  0.60960000  0.94100000  1
  O  O135  1  0.09640000  0.50000000  0.93600000  1
  O  O136  1  0.22580000  0.33770000  0.11000000  1
  O  O137  1  0.18192000  0.41990000  0.19304000  1
  O  O138  1  0.02950000  0.60960000  0.05900000  1
  O  O139  1  0.90360000  0.50000000  0.06400000  1
  O  O140  1  0.88420000  0.66230000  0.11000000  1
  O  O141  1  0.01112000  0.58010000  0.19304000  1
  O  O142  1  0.02950000  0.39040000  0.05900000  1
  O  O143  1  0.16040000  0.50000000  0.06400000  1
  O  O144  1  0.11580000  0.66230000  0.89000000  1
  O  O145  1  0.98888000  0.58010000  0.80696000  1
  O  O146  1  0.97050000  0.39040000  0.94100000  1
  O  O147  1  0.83960000  0.50000000  0.93600000  1
  O  O148  1  0.22580000  0.66230000  0.11000000  1
  O  O149  1  0.18192000  0.58010000  0.19304000  1
  O  O150  1  0.77420000  0.66230000  0.89000000  1
  O  O151  1  0.81808000  0.58010000  0.80696000  1
  O  O152  1  0.11580000  0.33770000  0.89000000  1
  O  O153  1  0.98888000  0.41990000  0.80696000  1
  O  O154  1  0.88420000  0.33770000  0.11000000  1
  O  O155  1  0.01112000  0.41990000  0.19304000  1
  Zr  Zr156  1  0.12206000  0.61002000  0.00000000  1
  Zr  Zr157  1  0.93399000  0.50000000  0.86798000  1
  Zr  Zr158  1  0.87794000  0.61002000  0.00000000  1
  Zr  Zr159  1  0.06601000  0.50000000  0.13202000  1
  Zr  Zr160  1  0.12206000  0.38998000  0.00000000  1
  Zr  Zr161  1  0.87794000  0.38998000  0.00000000  1
