# generated using pymatgen
data_Zr3H22(C10O3)4
_symmetry_space_group_name_H-M   'P 1'
_cell_length_a   18.77843497
_cell_length_b   18.77843497
_cell_length_c   20.10655271
_cell_angle_alpha   105.30124092
_cell_angle_beta   105.30124092
_cell_angle_gamma   115.77791017
_symmetry_Int_Tables_number   1
_chemical_formula_structural   Zr3H22(C10O3)4
_chemical_formula_sum   'Zr6 H44 C80 O24'
_cell_volume   5542.24847358
_cell_formula_units_Z   2
loop_
 _symmetry_equiv_pos_site_id
 _symmetry_equiv_pos_as_xyz
  1  'x, y, z'
loop_
 _atom_site_type_symbol
 _atom_site_label
 _atom_site_symmetry_multiplicity
 _atom_site_fract_x
 _atom_site_fract_y
 _atom_site_fract_z
 _atom_site_occupancy
  C  C0  1  0.94580000  0.08400000  0.81380000  1
  C  C1  1  0.92686000  0.10946000  0.75172000  1
  C  C2  1  0.89369000  0.05029000  0.67498000  1
  C  C3  1  0.87552000  0.07072000  0.61984000  1
  C  C4  1  0.87690000  0.15290000  0.63040000  1
  C  C5  1  0.90773000  0.20873000  0.70526000  1
  C  C6  1  0.93256000  0.18876000  0.76412000  1
  C  C7  1  0.84822000  0.16882000  0.56464000  1
  C  C8  1  0.80439000  0.21479000  0.56258000  1
  C  C9  1  0.86050000  0.13950000  0.50000000  1
  C  C10  1  0.77470000  0.22530000  0.50000000  1
  C  C11  1  0.86800000  0.72980000  0.81380000  1
  C  C12  1  0.82486000  0.64226000  0.75172000  1
  C  C13  1  0.78129000  0.62469000  0.67498000  1
  C  C14  1  0.74432000  0.54912000  0.61984000  1
  C  C15  1  0.75350000  0.47750000  0.63040000  1
  C  C16  1  0.79753000  0.49653000  0.70526000  1
  C  C17  1  0.83156000  0.57536000  0.76412000  1
  C  C18  1  0.71642000  0.39582000  0.56464000  1
  C  C19  1  0.75819000  0.34779000  0.56258000  1
  C  C20  1  0.63950000  0.36050000  0.50000000  1
  C  C21  1  0.72530000  0.27470000  0.50000000  1
  C  C22  1  0.27020000  0.13200000  0.18620000  1
  C  C23  1  0.35774000  0.17514000  0.24828000  1
  C  C24  1  0.37531000  0.21871000  0.32502000  1
  C  C25  1  0.45088000  0.25568000  0.38016000  1
  C  C26  1  0.52250000  0.24650000  0.36960000  1
  C  C27  1  0.50347000  0.20247000  0.29474000  1
  C  C28  1  0.42464000  0.16844000  0.23588000  1
  C  C29  1  0.60418000  0.28358000  0.43536000  1
  C  C30  1  0.65221000  0.24181000  0.43742000  1
  C  C31  1  0.91600000  0.05420000  0.18620000  1
  C  C32  1  0.89054000  0.07314000  0.24828000  1
  C  C33  1  0.94971000  0.10631000  0.32502000  1
  C  C34  1  0.92928000  0.12448000  0.38016000  1
  C  C35  1  0.84710000  0.12310000  0.36960000  1
  C  C36  1  0.79127000  0.09227000  0.29474000  1
  C  C37  1  0.81124000  0.06744000  0.23588000  1
  C  C38  1  0.83118000  0.15178000  0.43536000  1
  C  C39  1  0.78521000  0.19561000  0.43742000  1
  C  C40  1  0.05420000  0.91600000  0.18620000  1
  C  C41  1  0.07314000  0.89054000  0.24828000  1
  C  C42  1  0.10631000  0.94971000  0.32502000  1
  C  C43  1  0.12448000  0.92928000  0.38016000  1
  C  C44  1  0.12310000  0.84710000  0.36960000  1
  C  C45  1  0.09227000  0.79127000  0.29474000  1
  C  C46  1  0.06744000  0.81124000  0.23588000  1
  C  C47  1  0.15178000  0.83118000  0.43536000  1
  C  C48  1  0.19561000  0.78521000  0.43742000  1
  C  C49  1  0.13950000  0.86050000  0.50000000  1
  C  C50  1  0.22530000  0.77470000  0.50000000  1
  C  C51  1  0.13200000  0.27020000  0.18620000  1
  C  C52  1  0.17514000  0.35774000  0.24828000  1
  C  C53  1  0.21871000  0.37531000  0.32502000  1
  C  C54  1  0.25568000  0.45088000  0.38016000  1
  C  C55  1  0.24650000  0.52250000  0.36960000  1
  C  C56  1  0.20247000  0.50347000  0.29474000  1
  C  C57  1  0.16844000  0.42464000  0.23588000  1
  C  C58  1  0.28358000  0.60418000  0.43536000  1
  C  C59  1  0.24181000  0.65221000  0.43742000  1
  C  C60  1  0.36050000  0.63950000  0.50000000  1
  C  C61  1  0.27470000  0.72530000  0.50000000  1
  C  C62  1  0.72980000  0.86800000  0.81380000  1
  C  C63  1  0.64226000  0.82486000  0.75172000  1
  C  C64  1  0.62469000  0.78129000  0.67498000  1
  C  C65  1  0.54912000  0.74432000  0.61984000  1
  C  C66  1  0.47750000  0.75350000  0.63040000  1
  C  C67  1  0.49653000  0.79753000  0.70526000  1
  C  C68  1  0.57536000  0.83156000  0.76412000  1
  C  C69  1  0.39582000  0.71642000  0.56464000  1
  C  C70  1  0.34779000  0.75819000  0.56258000  1
  C  C71  1  0.08400000  0.94580000  0.81380000  1
  C  C72  1  0.10946000  0.92686000  0.75172000  1
  C  C73  1  0.05029000  0.89369000  0.67498000  1
  C  C74  1  0.07072000  0.87552000  0.61984000  1
  C  C75  1  0.15290000  0.87690000  0.63040000  1
  C  C76  1  0.20873000  0.90773000  0.70526000  1
  C  C77  1  0.18876000  0.93256000  0.76412000  1
  C  C78  1  0.16882000  0.84822000  0.56464000  1
  C  C79  1  0.21479000  0.80439000  0.56258000  1
  H  H80  1  0.88480000  0.99380000  0.66400000  1
  H  H81  1  0.86040000  0.03180000  0.57000000  1
  H  H82  1  0.91190000  0.26310000  0.71640000  1
  H  H83  1  0.95460000  0.23000000  0.81520000  1
  H  H84  1  0.79630000  0.23810000  0.60600000  1
  H  H85  1  0.89040000  0.10960000  0.50000000  1
  H  H86  1  0.77920000  0.67020000  0.66400000  1
  H  H87  1  0.70960000  0.53820000  0.57000000  1
  H  H88  1  0.80450000  0.45330000  0.71640000  1
  H  H89  1  0.86060000  0.58520000  0.81520000  1
  H  H90  1  0.80970000  0.36790000  0.60600000  1
  H  H91  1  0.60960000  0.39040000  0.50000000  1
  H  H92  1  0.32980000  0.22080000  0.33600000  1
  H  H93  1  0.46180000  0.29040000  0.43000000  1
  H  H94  1  0.54670000  0.19550000  0.28360000  1
  H  H95  1  0.41480000  0.13940000  0.18480000  1
  H  H96  1  0.63210000  0.19030000  0.39400000  1
  H  H97  1  0.00620000  0.11520000  0.33600000  1
  H  H98  1  0.96820000  0.13960000  0.43000000  1
  H  H99  1  0.73690000  0.08810000  0.28360000  1
  H  H100  1  0.77000000  0.04540000  0.18480000  1
  H  H101  1  0.76190000  0.20370000  0.39400000  1
  H  H102  1  0.11520000  0.00620000  0.33600000  1
  H  H103  1  0.13960000  0.96820000  0.43000000  1
  H  H104  1  0.08810000  0.73690000  0.28360000  1
  H  H105  1  0.04540000  0.77000000  0.18480000  1
  H  H106  1  0.20370000  0.76190000  0.39400000  1
  H  H107  1  0.10960000  0.89040000  0.50000000  1
  H  H108  1  0.22080000  0.32980000  0.33600000  1
  H  H109  1  0.29040000  0.46180000  0.43000000  1
  H  H110  1  0.19550000  0.54670000  0.28360000  1
  H  H111  1  0.13940000  0.41480000  0.18480000  1
  H  H112  1  0.19030000  0.63210000  0.39400000  1
  H  H113  1  0.39040000  0.60960000  0.50000000  1
  H  H114  1  0.67020000  0.77920000  0.66400000  1
  H  H115  1  0.53820000  0.70960000  0.57000000  1
  H  H116  1  0.45330000  0.80450000  0.71640000  1
  H  H117  1  0.58520000  0.86060000  0.81520000  1
  H  H118  1  0.36790000  0.80970000  0.60600000  1
  H  H119  1  0.99380000  0.88480000  0.66400000  1
  H  H120  1  0.03180000  0.86040000  0.57000000  1
  H  H121  1  0.26310000  0.91190000  0.71640000  1
  H  H122  1  0.23000000  0.95460000  0.81520000  1
  H  H123  1  0.23810000  0.79630000  0.60600000  1
  O  O124  1  0.98459000  0.14225000  0.88424000  1
  O  O125  1  0.92253000  0.00587000  0.79600000  1
  O  O126  1  0.90890000  0.02370000  0.93260000  1
  O  O127  1  0.05700000  0.05700000  0.93180000  1
  O  O128  1  0.89965000  0.74199000  0.88424000  1
  O  O129  1  0.87347000  0.79013000  0.79600000  1
  O  O130  1  0.02370000  0.90890000  0.93260000  1
  O  O131  1  0.87480000  0.87480000  0.93180000  1
  O  O132  1  0.25801000  0.10035000  0.11576000  1
  O  O133  1  0.20987000  0.12653000  0.20400000  1
  O  O134  1  0.09110000  0.97630000  0.06740000  1
  O  O135  1  0.12520000  0.12520000  0.06820000  1
  O  O136  1  0.85775000  0.01541000  0.11576000  1
  O  O137  1  0.99413000  0.07747000  0.20400000  1
  O  O138  1  0.97630000  0.09110000  0.06740000  1
  O  O139  1  0.94300000  0.94300000  0.06820000  1
  O  O140  1  0.01541000  0.85775000  0.11576000  1
  O  O141  1  0.07747000  0.99413000  0.20400000  1
  O  O142  1  0.10035000  0.25801000  0.11576000  1
  O  O143  1  0.12653000  0.20987000  0.20400000  1
  O  O144  1  0.74199000  0.89965000  0.88424000  1
  O  O145  1  0.79013000  0.87347000  0.79600000  1
  O  O146  1  0.14225000  0.98459000  0.88424000  1
  O  O147  1  0.00587000  0.92253000  0.79600000  1
  Zr  Zr148  1  0.92998000  0.92998000  0.85996000  1
  Zr  Zr149  1  0.03245000  0.14433000  0.00000000  1
  Zr  Zr150  1  0.96755000  0.85567000  0.00000000  1
  Zr  Zr151  1  0.07002000  0.07002000  0.14004000  1
  Zr  Zr152  1  0.14433000  0.03245000  0.00000000  1
  Zr  Zr153  1  0.85567000  0.96755000  1.00000000  1
