# generated using pymatgen
data_Zr3H22(C10O3)4
_symmetry_space_group_name_H-M   'P 1'
_cell_length_a   16.11680000
_cell_length_b   18.37777170
_cell_length_c   19.59604375
_cell_angle_alpha   79.61178217
_cell_angle_beta   65.71813512
_cell_angle_gamma   63.99266293
_symmetry_Int_Tables_number   1
_chemical_formula_structural   Zr3H22(C10O3)4
_chemical_formula_sum   'Zr6 H44 C80 O24'
_cell_volume   4754.94779061
_cell_formula_units_Z   2
loop_
 _symmetry_equiv_pos_site_id
 _symmetry_equiv_pos_as_xyz
  1  'x, y, z'
loop_
 _atom_site_type_symbol
 _atom_site_label
 _atom_site_symmetry_multiplicity
 _atom_site_fract_x
 _atom_site_fract_y
 _atom_site_fract_z
 _atom_site_occupancy
  C  C0  1  0.30518000  0.41222000  0.43562000  1
  C  C1  1  0.34706000  0.32850000  0.43478000  1
  C  C2  1  0.46809000  0.13694000  0.18088000  1
  C  C3  1  0.37897000  0.28150000  0.36796000  1
  C  C4  1  0.43880000  0.18920000  0.24460000  1
  C  C5  1  0.42914000  0.30240000  0.29632000  1
  C  C6  1  0.45900000  0.25568000  0.23552000  1
  C  C7  1  0.36040000  0.21346000  0.37614000  1
  C  C8  1  0.38757000  0.16854000  0.31632000  1
  C  C9  1  0.27286000  0.45428000  0.50000000  1
  C  C10  1  0.35637000  0.28726000  0.50000000  1
  C  C11  1  0.25920000  0.58778000  0.43562000  1
  C  C12  1  0.21816000  0.67150000  0.43478000  1
  C  C13  1  0.35103000  0.86306000  0.18088000  1
  C  C14  1  0.25307000  0.71850000  0.36796000  1
  C  C15  1  0.31660000  0.81080000  0.24460000  1
  C  C16  1  0.27454000  0.69760000  0.29632000  1
  C  C17  1  0.30548000  0.74432000  0.23552000  1
  C  C18  1  0.26346000  0.78654000  0.37614000  1
  C  C19  1  0.29611000  0.83146000  0.31632000  1
  C  C20  1  0.22714000  0.54572000  0.50000000  1
  C  C21  1  0.14363000  0.71274000  0.50000000  1
  C  C22  1  0.15302000  0.58778000  0.56438000  1
  C  C23  1  0.11034000  0.67150000  0.56522000  1
  C  C24  1  0.78591000  0.86306000  0.81912000  1
  C  C25  1  0.02843000  0.71850000  0.63204000  1
  C  C26  1  0.87260000  0.81080000  0.75540000  1
  C  C27  1  0.02786000  0.69760000  0.70368000  1
  C  C28  1  0.95020000  0.74432000  0.76448000  1
  C  C29  1  0.95000000  0.78654000  0.62386000  1
  C  C30  1  0.87243000  0.83146000  0.68368000  1
  C  C31  1  0.28260000  0.41222000  0.56438000  1
  C  C32  1  0.32444000  0.32850000  0.56522000  1
  C  C33  1  0.39497000  0.13694000  0.81912000  1
  C  C34  1  0.33953000  0.28150000  0.63204000  1
  C  C35  1  0.37200000  0.18920000  0.75540000  1
  C  C36  1  0.26846000  0.30240000  0.70368000  1
  C  C37  1  0.28532000  0.25568000  0.76448000  1
  C  C38  1  0.42614000  0.21346000  0.62386000  1
  C  C39  1  0.44389000  0.16854000  0.68368000  1
  C  C40  1  0.69482000  0.58778000  0.56438000  1
  C  C41  1  0.65294000  0.67150000  0.56522000  1
  C  C42  1  0.53191000  0.86306000  0.81912000  1
  C  C43  1  0.62103000  0.71850000  0.63204000  1
  C  C44  1  0.56120000  0.81080000  0.75540000  1
  C  C45  1  0.57086000  0.69760000  0.70368000  1
  C  C46  1  0.54100000  0.74432000  0.76448000  1
  C  C47  1  0.63960000  0.78654000  0.62386000  1
  C  C48  1  0.61243000  0.83146000  0.68368000  1
  C  C49  1  0.72714000  0.54572000  0.50000000  1
  C  C50  1  0.64363000  0.71274000  0.50000000  1
  C  C51  1  0.74080000  0.41222000  0.56438000  1
  C  C52  1  0.78184000  0.32850000  0.56522000  1
  C  C53  1  0.64897000  0.13694000  0.81912000  1
  C  C54  1  0.74693000  0.28150000  0.63204000  1
  C  C55  1  0.68340000  0.18920000  0.75540000  1
  C  C56  1  0.72546000  0.30240000  0.70368000  1
  C  C57  1  0.69452000  0.25568000  0.76448000  1
  C  C58  1  0.73654000  0.21346000  0.62386000  1
  C  C59  1  0.70389000  0.16854000  0.68368000  1
  C  C60  1  0.77286000  0.45428000  0.50000000  1
  C  C61  1  0.85637000  0.28726000  0.50000000  1
  C  C62  1  0.84698000  0.41222000  0.43562000  1
  C  C63  1  0.88966000  0.32850000  0.43478000  1
  C  C64  1  0.21409000  0.13694000  0.18088000  1
  C  C65  1  0.97157000  0.28150000  0.36796000  1
  C  C66  1  0.12740000  0.18920000  0.24460000  1
  C  C67  1  0.97214000  0.30240000  0.29632000  1
  C  C68  1  0.04980000  0.25568000  0.23552000  1
  C  C69  1  0.05000000  0.21346000  0.37614000  1
  C  C70  1  0.12757000  0.16854000  0.31632000  1
  C  C71  1  0.71740000  0.58778000  0.43562000  1
  C  C72  1  0.67556000  0.67150000  0.43478000  1
  C  C73  1  0.60503000  0.86306000  0.18088000  1
  C  C74  1  0.66047000  0.71850000  0.36796000  1
  C  C75  1  0.62800000  0.81080000  0.24460000  1
  C  C76  1  0.73154000  0.69760000  0.29632000  1
  C  C77  1  0.71468000  0.74432000  0.23552000  1
  C  C78  1  0.57386000  0.78654000  0.37614000  1
  C  C79  1  0.55611000  0.83146000  0.31632000  1
  H  H80  1  0.29840000  0.44120000  0.39160000  1
  H  H81  1  0.44310000  0.34900000  0.28880000  1
  H  H82  1  0.49410000  0.27040000  0.18680000  1
  H  H83  1  0.32760000  0.19740000  0.42500000  1
  H  H84  1  0.37150000  0.12300000  0.32360000  1
  H  H85  1  0.38510000  0.22980000  0.50000000  1
  H  H86  1  0.31000000  0.55880000  0.39160000  1
  H  H87  1  0.26810000  0.65100000  0.28880000  1
  H  H88  1  0.31910000  0.72960000  0.18680000  1
  H  H89  1  0.24740000  0.80260000  0.42500000  1
  H  H90  1  0.30490000  0.87700000  0.32360000  1
  H  H91  1  0.11490000  0.77020000  0.50000000  1
  H  H92  1  0.13120000  0.55880000  0.60840000  1
  H  H93  1  0.08090000  0.65100000  0.71120000  1
  H  H94  1  0.95130000  0.72960000  0.81320000  1
  H  H95  1  0.95000000  0.80260000  0.57500000  1
  H  H96  1  0.81810000  0.87700000  0.67640000  1
  H  H97  1  0.26040000  0.44120000  0.60840000  1
  H  H98  1  0.20790000  0.34900000  0.71120000  1
  H  H99  1  0.23550000  0.27040000  0.81320000  1
  H  H100  1  0.47500000  0.19740000  0.57500000  1
  H  H101  1  0.50550000  0.12300000  0.67640000  1
  H  H102  1  0.70160000  0.55880000  0.60840000  1
  H  H103  1  0.55690000  0.65100000  0.71120000  1
  H  H104  1  0.50590000  0.72960000  0.81320000  1
  H  H105  1  0.67240000  0.80260000  0.57500000  1
  H  H106  1  0.62850000  0.87700000  0.67640000  1
  H  H107  1  0.61490000  0.77020000  0.50000000  1
  H  H108  1  0.69000000  0.44120000  0.60840000  1
  H  H109  1  0.73190000  0.34900000  0.71120000  1
  H  H110  1  0.68090000  0.27040000  0.81320000  1
  H  H111  1  0.75260000  0.19740000  0.57500000  1
  H  H112  1  0.69510000  0.12300000  0.67640000  1
  H  H113  1  0.88510000  0.22980000  0.50000000  1
  H  H114  1  0.86880000  0.44120000  0.39160000  1
  H  H115  1  0.91910000  0.34900000  0.28880000  1
  H  H116  1  0.04870000  0.27040000  0.18680000  1
  H  H117  1  0.05000000  0.19740000  0.42500000  1
  H  H118  1  0.18190000  0.12300000  0.32360000  1
  H  H119  1  0.73960000  0.55880000  0.39160000  1
  H  H120  1  0.79210000  0.65100000  0.28880000  1
  H  H121  1  0.76450000  0.72960000  0.18680000  1
  H  H122  1  0.52500000  0.80260000  0.42500000  1
  H  H123  1  0.49450000  0.87700000  0.32360000  1
  O  O124  1  0.44359000  0.07916000  0.19806000  1
  O  O125  1  0.51691000  0.15454000  0.11504000  1
  O  O126  1  0.35477000  0.00000000  0.06586000  1
  O  O127  1  0.52053000  0.89138000  0.06756000  1
  O  O128  1  0.35835000  0.92084000  0.19806000  1
  O  O129  1  0.36805000  0.84546000  0.11504000  1
  O  O130  1  0.57937000  0.00000000  0.06586000  1
  O  O131  1  0.41191000  0.10862000  0.06756000  1
  O  O132  1  0.72081000  0.92084000  0.80194000  1
  O  O133  1  0.78649000  0.84546000  0.88496000  1
  O  O134  1  0.42063000  0.00000000  0.93414000  1
  O  O135  1  0.47947000  0.10862000  0.93244000  1
  O  O136  1  0.47725000  0.07916000  0.80194000  1
  O  O137  1  0.32855000  0.15454000  0.88496000  1
  O  O138  1  0.64523000  0.00000000  0.93414000  1
  O  O139  1  0.58809000  0.89138000  0.93244000  1
  O  O140  1  0.55641000  0.92084000  0.80194000  1
  O  O141  1  0.48309000  0.84546000  0.88496000  1
  O  O142  1  0.64165000  0.07916000  0.80194000  1
  O  O143  1  0.63195000  0.15454000  0.88496000  1
  O  O144  1  0.27919000  0.07916000  0.19806000  1
  O  O145  1  0.21351000  0.15454000  0.11504000  1
  O  O146  1  0.52275000  0.92084000  0.19806000  1
  O  O147  1  0.67145000  0.84546000  0.11504000  1
  Zr  Zr148  1  0.43198000  0.00000000  0.13604000  1
  Zr  Zr149  1  0.44437000  0.89230000  1.00000000  1
  Zr  Zr150  1  0.55563000  0.10770000  1.00000000  1
  Zr  Zr151  1  0.56802000  0.00000000  0.86396000  1
  Zr  Zr152  1  0.33667000  0.10770000  1.00000000  1
  Zr  Zr153  1  0.66333000  0.89230000  0.00000000  1
