# generated using pymatgen
data_Zr3H26(C3O)14
_symmetry_space_group_name_H-M   'P 1'
_cell_length_a   15.72680000
_cell_length_b   19.77520000
_cell_length_c   35.21460000
_cell_angle_alpha   90.00000000
_cell_angle_beta   90.00000000
_cell_angle_gamma   90.00000000
_symmetry_Int_Tables_number   1
_chemical_formula_structural   Zr3H26(C3O)14
_chemical_formula_sum   'Zr12 H104 C168 O56'
_cell_volume   10951.76226966
_cell_formula_units_Z   4
loop_
 _symmetry_equiv_pos_site_id
 _symmetry_equiv_pos_as_xyz
  1  'x, y, z'
loop_
 _atom_site_type_symbol
 _atom_site_label
 _atom_site_symmetry_multiplicity
 _atom_site_fract_x
 _atom_site_fract_y
 _atom_site_fract_z
 _atom_site_occupancy
  Zr  Zr0  1  0.38714000  0.41038000  0.50214000  1
  Zr  Zr1  1  0.50000000  0.50460000  0.56894000  1
  Zr  Zr2  1  0.38714000  0.58962000  0.49786000  1
  Zr  Zr3  1  0.50000000  0.49540000  0.43106000  1
  Zr  Zr4  1  0.61286000  0.08962000  0.00214000  1
  Zr  Zr5  1  0.50000000  0.99540000  0.06894000  1
  Zr  Zr6  1  0.61286000  0.91038000  0.99786000  1
  Zr  Zr7  1  0.50000000  0.00460000  0.93106000  1
  Zr  Zr8  1  0.61286000  0.58962000  0.49786000  1
  Zr  Zr9  1  0.61286000  0.41038000  0.50214000  1
  Zr  Zr10  1  0.38714000  0.91038000  0.99786000  1
  Zr  Zr11  1  0.38714000  0.08962000  0.00214000  1
  H  H12  1  0.76330000  0.70790000  0.58870000  1
  H  H13  1  0.93430000  0.72310000  0.69310000  1
  H  H14  1  0.93600000  0.80310000  0.79750000  1
  H  H15  1  0.76230000  0.80270000  0.90320000  1
  H  H16  1  0.83130000  0.75610000  0.85080000  1
  H  H17  1  0.83430000  0.76270000  0.63910000  1
  H  H18  1  0.63250000  0.93130000  0.83390000  1
  H  H19  1  0.70150000  0.88150000  0.78170000  1
  H  H20  1  0.63050000  0.59120000  0.66240000  1
  H  H21  1  0.70050000  0.64430000  0.71260000  1
  H  H22  1  0.69590000  0.84830000  0.70980000  1
  H  H23  1  0.60440000  0.84170000  0.72940000  1
  H  H24  1  0.62910000  0.79380000  0.69450000  1
  H  H25  1  0.76330000  0.29210000  0.41130000  1
  H  H26  1  0.93430000  0.27690000  0.30690000  1
  H  H27  1  0.93600000  0.19690000  0.20250000  1
  H  H28  1  0.76230000  0.19730000  0.09680000  1
  H  H29  1  0.83130000  0.24390000  0.14920000  1
  H  H30  1  0.83430000  0.23730000  0.36090000  1
  H  H31  1  0.63250000  0.06870000  0.16610000  1
  H  H32  1  0.70150000  0.11850000  0.21830000  1
  H  H33  1  0.63050000  0.40880000  0.33760000  1
  H  H34  1  0.70050000  0.35570000  0.28740000  1
  H  H35  1  0.69590000  0.15170000  0.29020000  1
  H  H36  1  0.60440000  0.15830000  0.27060000  1
  H  H37  1  0.62910000  0.20620000  0.30550000  1
  H  H38  1  0.23670000  0.79210000  0.08870000  1
  H  H39  1  0.06570000  0.77690000  0.19310000  1
  H  H40  1  0.06400000  0.69690000  0.29750000  1
  H  H41  1  0.23770000  0.69730000  0.40320000  1
  H  H42  1  0.16870000  0.74390000  0.35080000  1
  H  H43  1  0.16570000  0.73730000  0.13910000  1
  H  H44  1  0.36750000  0.56870000  0.33390000  1
  H  H45  1  0.29850000  0.61850000  0.28170000  1
  H  H46  1  0.36950000  0.90880000  0.16240000  1
  H  H47  1  0.29950000  0.85570000  0.21260000  1
  H  H48  1  0.30410000  0.65170000  0.20980000  1
  H  H49  1  0.39560000  0.65830000  0.22940000  1
  H  H50  1  0.37090000  0.70620000  0.19450000  1
  H  H51  1  0.23670000  0.20790000  0.91130000  1
  H  H52  1  0.06570000  0.22310000  0.80690000  1
  H  H53  1  0.06400000  0.30310000  0.70250000  1
  H  H54  1  0.23770000  0.30270000  0.59680000  1
  H  H55  1  0.16870000  0.25610000  0.64920000  1
  H  H56  1  0.16570000  0.26270000  0.86090000  1
  H  H57  1  0.36750000  0.43130000  0.66610000  1
  H  H58  1  0.29850000  0.38150000  0.71830000  1
  H  H59  1  0.36950000  0.09120000  0.83760000  1
  H  H60  1  0.29950000  0.14430000  0.78740000  1
  H  H61  1  0.30410000  0.34830000  0.79020000  1
  H  H62  1  0.39560000  0.34170000  0.77060000  1
  H  H63  1  0.37090000  0.29380000  0.80550000  1
  H  H64  1  0.23670000  0.29210000  0.41130000  1
  H  H65  1  0.06570000  0.27690000  0.30690000  1
  H  H66  1  0.06400000  0.19690000  0.20250000  1
  H  H67  1  0.23770000  0.19730000  0.09680000  1
  H  H68  1  0.16870000  0.24390000  0.14920000  1
  H  H69  1  0.16570000  0.23730000  0.36090000  1
  H  H70  1  0.36750000  0.06870000  0.16610000  1
  H  H71  1  0.29850000  0.11850000  0.21830000  1
  H  H72  1  0.36950000  0.40880000  0.33760000  1
  H  H73  1  0.29950000  0.35570000  0.28740000  1
  H  H74  1  0.30410000  0.15170000  0.29020000  1
  H  H75  1  0.39560000  0.15830000  0.27060000  1
  H  H76  1  0.37090000  0.20620000  0.30550000  1
  H  H77  1  0.23670000  0.70790000  0.58870000  1
  H  H78  1  0.06570000  0.72310000  0.69310000  1
  H  H79  1  0.06400000  0.80310000  0.79750000  1
  H  H80  1  0.23770000  0.80270000  0.90320000  1
  H  H81  1  0.16870000  0.75610000  0.85080000  1
  H  H82  1  0.16570000  0.76270000  0.63910000  1
  H  H83  1  0.36750000  0.93130000  0.83390000  1
  H  H84  1  0.29850000  0.88150000  0.78170000  1
  H  H85  1  0.36950000  0.59120000  0.66240000  1
  H  H86  1  0.29950000  0.64430000  0.71260000  1
  H  H87  1  0.30410000  0.84830000  0.70980000  1
  H  H88  1  0.39560000  0.84170000  0.72940000  1
  H  H89  1  0.37090000  0.79380000  0.69450000  1
  H  H90  1  0.76330000  0.20790000  0.91130000  1
  H  H91  1  0.93430000  0.22310000  0.80690000  1
  H  H92  1  0.93600000  0.30310000  0.70250000  1
  H  H93  1  0.76230000  0.30270000  0.59680000  1
  H  H94  1  0.83130000  0.25610000  0.64920000  1
  H  H95  1  0.83430000  0.26270000  0.86090000  1
  H  H96  1  0.63250000  0.43130000  0.66610000  1
  H  H97  1  0.70150000  0.38150000  0.71830000  1
  H  H98  1  0.63050000  0.09120000  0.83760000  1
  H  H99  1  0.70050000  0.14430000  0.78740000  1
  H  H100  1  0.69590000  0.34830000  0.79020000  1
  H  H101  1  0.60440000  0.34170000  0.77060000  1
  H  H102  1  0.62910000  0.29380000  0.80550000  1
  H  H103  1  0.76330000  0.79210000  0.08870000  1
  H  H104  1  0.93430000  0.77690000  0.19310000  1
  H  H105  1  0.93600000  0.69690000  0.29750000  1
  H  H106  1  0.76230000  0.69730000  0.40320000  1
  H  H107  1  0.83130000  0.74390000  0.35080000  1
  H  H108  1  0.83430000  0.73730000  0.13910000  1
  H  H109  1  0.63250000  0.56870000  0.33390000  1
  H  H110  1  0.70150000  0.61850000  0.28170000  1
  H  H111  1  0.63050000  0.90880000  0.16240000  1
  H  H112  1  0.70050000  0.85570000  0.21260000  1
  H  H113  1  0.69590000  0.65170000  0.20980000  1
  H  H114  1  0.60440000  0.65830000  0.22940000  1
  H  H115  1  0.62910000  0.70620000  0.19450000  1
  C  C116  1  0.63990000  0.61260000  0.58969000  1
  C  C117  1  0.95150000  0.76160000  0.74595000  1
  C  C118  1  0.63980000  0.90000000  0.90520000  1
  C  C119  1  0.68870000  0.86670000  0.87328000  1
  C  C120  1  0.74940000  0.69650000  0.61418000  1
  C  C121  1  0.90490000  0.74000000  0.71469000  1
  C  C122  1  0.90600000  0.78600000  0.77615000  1
  C  C123  1  0.74900000  0.81810000  0.87834000  1
  C  C124  1  0.68790000  0.64930000  0.62052000  1
  C  C125  1  0.79090000  0.79130000  0.84740000  1
  C  C126  1  0.77560000  0.76470000  0.74503000  1
  C  C127  1  0.79290000  0.72880000  0.64385000  1
  C  C128  1  0.81860000  0.74230000  0.71400000  1
  C  C129  1  0.77330000  0.81640000  0.81080000  1
  C  C130  1  0.82030000  0.78680000  0.77663000  1
  C  C131  1  0.77170000  0.70810000  0.68175000  1
  C  C132  1  0.67120000  0.89490000  0.83710000  1
  C  C133  1  0.71410000  0.86590000  0.80660000  1
  C  C134  1  0.67010000  0.62660000  0.65780000  1
  C  C135  1  0.71270000  0.65800000  0.68730000  1
  C  C136  1  0.65070000  0.81670000  0.71714000  1
  C  C137  1  0.63990000  0.38740000  0.41031000  1
  C  C138  1  0.95150000  0.23840000  0.25405000  1
  C  C139  1  0.63980000  0.10000000  0.09480000  1
  C  C140  1  0.68870000  0.13330000  0.12672000  1
  C  C141  1  0.74940000  0.30350000  0.38582000  1
  C  C142  1  0.90490000  0.26000000  0.28531000  1
  C  C143  1  0.90600000  0.21400000  0.22385000  1
  C  C144  1  0.74900000  0.18190000  0.12166000  1
  C  C145  1  0.68790000  0.35070000  0.37948000  1
  C  C146  1  0.79090000  0.20870000  0.15260000  1
  C  C147  1  0.77560000  0.23530000  0.25497000  1
  C  C148  1  0.79290000  0.27120000  0.35615000  1
  C  C149  1  0.81860000  0.25770000  0.28600000  1
  C  C150  1  0.77330000  0.18360000  0.18920000  1
  C  C151  1  0.82030000  0.21320000  0.22337000  1
  C  C152  1  0.77170000  0.29190000  0.31825000  1
  C  C153  1  0.67120000  0.10510000  0.16290000  1
  C  C154  1  0.71410000  0.13410000  0.19340000  1
  C  C155  1  0.67010000  0.37340000  0.34220000  1
  C  C156  1  0.71270000  0.34200000  0.31270000  1
  C  C157  1  0.65070000  0.18330000  0.28286000  1
  C  C158  1  0.36010000  0.88740000  0.08969000  1
  C  C159  1  0.04850000  0.73840000  0.24595000  1
  C  C160  1  0.36020000  0.60000000  0.40520000  1
  C  C161  1  0.31130000  0.63330000  0.37328000  1
  C  C162  1  0.25060000  0.80350000  0.11418000  1
  C  C163  1  0.09510000  0.76000000  0.21469000  1
  C  C164  1  0.09400000  0.71400000  0.27615000  1
  C  C165  1  0.25100000  0.68190000  0.37834000  1
  C  C166  1  0.31210000  0.85070000  0.12052000  1
  C  C167  1  0.20910000  0.70870000  0.34740000  1
  C  C168  1  0.22440000  0.73530000  0.24503000  1
  C  C169  1  0.20710000  0.77120000  0.14385000  1
  C  C170  1  0.18140000  0.75770000  0.21400000  1
  C  C171  1  0.22670000  0.68360000  0.31080000  1
  C  C172  1  0.17970000  0.71320000  0.27663000  1
  C  C173  1  0.22830000  0.79190000  0.18175000  1
  C  C174  1  0.32880000  0.60510000  0.33710000  1
  C  C175  1  0.28590000  0.63410000  0.30660000  1
  C  C176  1  0.32990000  0.87340000  0.15780000  1
  C  C177  1  0.28730000  0.84200000  0.18730000  1
  C  C178  1  0.34930000  0.68330000  0.21714000  1
  C  C179  1  0.36010000  0.11260000  0.91031000  1
  C  C180  1  0.04850000  0.26160000  0.75405000  1
  C  C181  1  0.36020000  0.40000000  0.59480000  1
  C  C182  1  0.31130000  0.36670000  0.62672000  1
  C  C183  1  0.25060000  0.19650000  0.88582000  1
  C  C184  1  0.09510000  0.24000000  0.78531000  1
  C  C185  1  0.09400000  0.28600000  0.72385000  1
  C  C186  1  0.25100000  0.31810000  0.62166000  1
  C  C187  1  0.31210000  0.14930000  0.87948000  1
  C  C188  1  0.20910000  0.29130000  0.65260000  1
  C  C189  1  0.22440000  0.26470000  0.75497000  1
  C  C190  1  0.20710000  0.22880000  0.85615000  1
  C  C191  1  0.18140000  0.24230000  0.78600000  1
  C  C192  1  0.22670000  0.31640000  0.68920000  1
  C  C193  1  0.17970000  0.28680000  0.72337000  1
  C  C194  1  0.22830000  0.20810000  0.81825000  1
  C  C195  1  0.32880000  0.39490000  0.66290000  1
  C  C196  1  0.28590000  0.36590000  0.69340000  1
  C  C197  1  0.32990000  0.12660000  0.84220000  1
  C  C198  1  0.28730000  0.15800000  0.81270000  1
  C  C199  1  0.34930000  0.31670000  0.78286000  1
  C  C200  1  0.36010000  0.38740000  0.41031000  1
  C  C201  1  0.04850000  0.23840000  0.25405000  1
  C  C202  1  0.36020000  0.10000000  0.09480000  1
  C  C203  1  0.31130000  0.13330000  0.12672000  1
  C  C204  1  0.25060000  0.30350000  0.38582000  1
  C  C205  1  0.09510000  0.26000000  0.28531000  1
  C  C206  1  0.09400000  0.21400000  0.22385000  1
  C  C207  1  0.25100000  0.18190000  0.12166000  1
  C  C208  1  0.31210000  0.35070000  0.37948000  1
  C  C209  1  0.20910000  0.20870000  0.15260000  1
  C  C210  1  0.22440000  0.23530000  0.25497000  1
  C  C211  1  0.20710000  0.27120000  0.35615000  1
  C  C212  1  0.18140000  0.25770000  0.28600000  1
  C  C213  1  0.22670000  0.18360000  0.18920000  1
  C  C214  1  0.17970000  0.21320000  0.22337000  1
  C  C215  1  0.22830000  0.29190000  0.31825000  1
  C  C216  1  0.32880000  0.10510000  0.16290000  1
  C  C217  1  0.28590000  0.13410000  0.19340000  1
  C  C218  1  0.32990000  0.37340000  0.34220000  1
  C  C219  1  0.28730000  0.34200000  0.31270000  1
  C  C220  1  0.34930000  0.18330000  0.28286000  1
  C  C221  1  0.36010000  0.61260000  0.58969000  1
  C  C222  1  0.04850000  0.76160000  0.74595000  1
  C  C223  1  0.36020000  0.90000000  0.90520000  1
  C  C224  1  0.31130000  0.86670000  0.87328000  1
  C  C225  1  0.25060000  0.69650000  0.61418000  1
  C  C226  1  0.09510000  0.74000000  0.71469000  1
  C  C227  1  0.09400000  0.78600000  0.77615000  1
  C  C228  1  0.25100000  0.81810000  0.87834000  1
  C  C229  1  0.31210000  0.64930000  0.62052000  1
  C  C230  1  0.20910000  0.79130000  0.84740000  1
  C  C231  1  0.22440000  0.76470000  0.74503000  1
  C  C232  1  0.20710000  0.72880000  0.64385000  1
  C  C233  1  0.18140000  0.74230000  0.71400000  1
  C  C234  1  0.22670000  0.81640000  0.81080000  1
  C  C235  1  0.17970000  0.78680000  0.77663000  1
  C  C236  1  0.22830000  0.70810000  0.68175000  1
  C  C237  1  0.32880000  0.89490000  0.83710000  1
  C  C238  1  0.28590000  0.86590000  0.80660000  1
  C  C239  1  0.32990000  0.62660000  0.65780000  1
  C  C240  1  0.28730000  0.65800000  0.68730000  1
  C  C241  1  0.34930000  0.81670000  0.71714000  1
  C  C242  1  0.63990000  0.11260000  0.91031000  1
  C  C243  1  0.95150000  0.26160000  0.75405000  1
  C  C244  1  0.63980000  0.40000000  0.59480000  1
  C  C245  1  0.68870000  0.36670000  0.62672000  1
  C  C246  1  0.74940000  0.19650000  0.88582000  1
  C  C247  1  0.90490000  0.24000000  0.78531000  1
  C  C248  1  0.90600000  0.28600000  0.72385000  1
  C  C249  1  0.74900000  0.31810000  0.62166000  1
  C  C250  1  0.68790000  0.14930000  0.87948000  1
  C  C251  1  0.79090000  0.29130000  0.65260000  1
  C  C252  1  0.77560000  0.26470000  0.75497000  1
  C  C253  1  0.79290000  0.22880000  0.85615000  1
  C  C254  1  0.81860000  0.24230000  0.78600000  1
  C  C255  1  0.77330000  0.31640000  0.68920000  1
  C  C256  1  0.82030000  0.28680000  0.72337000  1
  C  C257  1  0.77170000  0.20810000  0.81825000  1
  C  C258  1  0.67120000  0.39490000  0.66290000  1
  C  C259  1  0.71410000  0.36590000  0.69340000  1
  C  C260  1  0.67010000  0.12660000  0.84220000  1
  C  C261  1  0.71270000  0.15800000  0.81270000  1
  C  C262  1  0.65070000  0.31670000  0.78286000  1
  C  C263  1  0.63990000  0.88740000  0.08969000  1
  C  C264  1  0.95150000  0.73840000  0.24595000  1
  C  C265  1  0.63980000  0.60000000  0.40520000  1
  C  C266  1  0.68870000  0.63330000  0.37328000  1
  C  C267  1  0.74940000  0.80350000  0.11418000  1
  C  C268  1  0.90490000  0.76000000  0.21469000  1
  C  C269  1  0.90600000  0.71400000  0.27615000  1
  C  C270  1  0.74900000  0.68190000  0.37834000  1
  C  C271  1  0.68790000  0.85070000  0.12052000  1
  C  C272  1  0.79090000  0.70870000  0.34740000  1
  C  C273  1  0.77560000  0.73530000  0.24503000  1
  C  C274  1  0.79290000  0.77120000  0.14385000  1
  C  C275  1  0.81860000  0.75770000  0.21400000  1
  C  C276  1  0.77330000  0.68360000  0.31080000  1
  C  C277  1  0.82030000  0.71320000  0.27663000  1
  C  C278  1  0.77170000  0.79190000  0.18175000  1
  C  C279  1  0.67120000  0.60510000  0.33710000  1
  C  C280  1  0.71410000  0.63410000  0.30660000  1
  C  C281  1  0.67010000  0.87340000  0.15780000  1
  C  C282  1  0.71270000  0.84200000  0.18730000  1
  C  C283  1  0.65070000  0.68330000  0.21714000  1
  O  O284  1  0.58300000  0.57260000  0.59939000  1
  O  O285  1  0.58370000  0.94140000  0.89721000  1
  O  O286  1  0.38660000  0.50280000  0.53385000  1
  O  O287  1  0.65920000  0.87900000  0.93911000  1
  O  O288  1  0.65960000  0.62920000  0.55464000  1
  O  O289  1  0.68840000  0.76120000  0.74656000  1
  O  O290  1  0.50000000  0.40730000  0.46824000  1
  O  O291  1  0.50000000  0.41290000  0.53580000  1
  O  O292  1  0.58300000  0.42740000  0.40061000  1
  O  O293  1  0.58370000  0.05860000  0.10279000  1
  O  O294  1  0.38660000  0.49720000  0.46615000  1
  O  O295  1  0.65920000  0.12100000  0.06089000  1
  O  O296  1  0.65960000  0.37080000  0.44536000  1
  O  O297  1  0.68840000  0.23880000  0.25344000  1
  O  O298  1  0.50000000  0.59270000  0.53176000  1
  O  O299  1  0.50000000  0.58710000  0.46420000  1
  O  O300  1  0.41700000  0.92740000  0.09939000  1
  O  O301  1  0.41630000  0.55860000  0.39721000  1
  O  O302  1  0.61340000  0.99720000  0.03385000  1
  O  O303  1  0.34080000  0.62100000  0.43911000  1
  O  O304  1  0.34040000  0.87080000  0.05464000  1
  O  O305  1  0.31160000  0.73880000  0.24656000  1
  O  O306  1  0.50000000  0.09270000  0.96824000  1
  O  O307  1  0.50000000  0.08710000  0.03580000  1
  O  O308  1  0.41700000  0.07260000  0.90061000  1
  O  O309  1  0.41630000  0.44140000  0.60279000  1
  O  O310  1  0.61340000  0.00280000  0.96615000  1
  O  O311  1  0.34080000  0.37900000  0.56089000  1
  O  O312  1  0.34040000  0.12920000  0.94536000  1
  O  O313  1  0.31160000  0.26120000  0.75344000  1
  O  O314  1  0.50000000  0.90730000  0.03176000  1
  O  O315  1  0.50000000  0.91290000  0.96420000  1
  O  O316  1  0.41700000  0.42740000  0.40061000  1
  O  O317  1  0.41630000  0.05860000  0.10279000  1
  O  O318  1  0.61340000  0.49720000  0.46615000  1
  O  O319  1  0.34080000  0.12100000  0.06089000  1
  O  O320  1  0.34040000  0.37080000  0.44536000  1
  O  O321  1  0.31160000  0.23880000  0.25344000  1
  O  O322  1  0.41700000  0.57260000  0.59939000  1
  O  O323  1  0.41630000  0.94140000  0.89721000  1
  O  O324  1  0.61340000  0.50280000  0.53385000  1
  O  O325  1  0.34080000  0.87900000  0.93911000  1
  O  O326  1  0.34040000  0.62920000  0.55464000  1
  O  O327  1  0.31160000  0.76120000  0.74656000  1
  O  O328  1  0.58300000  0.07260000  0.90061000  1
  O  O329  1  0.58370000  0.44140000  0.60279000  1
  O  O330  1  0.38660000  0.00280000  0.96615000  1
  O  O331  1  0.65920000  0.37900000  0.56089000  1
  O  O332  1  0.65960000  0.12920000  0.94536000  1
  O  O333  1  0.68840000  0.26120000  0.75344000  1
  O  O334  1  0.58300000  0.92740000  0.09939000  1
  O  O335  1  0.58370000  0.55860000  0.39721000  1
  O  O336  1  0.38660000  0.99720000  0.03385000  1
  O  O337  1  0.65920000  0.62100000  0.43911000  1
  O  O338  1  0.65960000  0.87080000  0.05464000  1
  O  O339  1  0.68840000  0.73880000  0.24656000  1
