# generated using pymatgen
data_Zr3H26(C3O)14
_symmetry_space_group_name_H-M   'P 1'
_cell_length_a   16.15500000
_cell_length_b   17.00700000
_cell_length_c   36.11700000
_cell_angle_alpha   90.00000000
_cell_angle_beta   90.00000000
_cell_angle_gamma   90.00000000
_symmetry_Int_Tables_number   1
_chemical_formula_structural   Zr3H26(C3O)14
_chemical_formula_sum   'Zr12 H104 C168 O56'
_cell_volume   9923.07658595
_cell_formula_units_Z   4
loop_
 _symmetry_equiv_pos_site_id
 _symmetry_equiv_pos_as_xyz
  1  'x, y, z'
loop_
 _atom_site_type_symbol
 _atom_site_label
 _atom_site_symmetry_multiplicity
 _atom_site_fract_x
 _atom_site_fract_y
 _atom_site_fract_z
 _atom_site_occupancy
  Zr  Zr0  1  0.50000000  0.50000000  0.56769000  1
  Zr  Zr1  1  0.50000000  0.00000000  0.06769000  1
  Zr  Zr2  1  0.50000000  0.50000000  0.43231000  1
  Zr  Zr3  1  0.50000000  0.00000000  0.93231000  1
  Zr  Zr4  1  0.38996000  0.39583000  0.50000000  1
  Zr  Zr5  1  0.38996000  0.89583000  0.00000000  1
  Zr  Zr6  1  0.38996000  0.60417000  0.50000000  1
  Zr  Zr7  1  0.38996000  0.10417000  0.00000000  1
  Zr  Zr8  1  0.61004000  0.60417000  0.50000000  1
  Zr  Zr9  1  0.61004000  0.10417000  0.00000000  1
  Zr  Zr10  1  0.61004000  0.39583000  0.50000000  1
  Zr  Zr11  1  0.61004000  0.89583000  0.00000000  1
  H  H12  1  0.64560000  0.42810000  0.65710000  1
  H  H13  1  0.82680000  0.21840000  0.64570000  1
  H  H14  1  0.74860000  0.26270000  0.59590000  1
  H  H15  1  0.71770000  0.38380000  0.70700000  1
  H  H16  1  0.92780000  0.29770000  0.70020000  1
  H  H17  1  0.64560000  0.92810000  0.15710000  1
  H  H18  1  0.82680000  0.71840000  0.14570000  1
  H  H19  1  0.74860000  0.76270000  0.09590000  1
  H  H20  1  0.71770000  0.88380000  0.20700000  1
  H  H21  1  0.92780000  0.79770000  0.20020000  1
  H  H22  1  0.71740000  0.83570000  0.28820000  1
  H  H23  1  0.62930000  0.79430000  0.29390000  1
  H  H24  1  0.64180000  0.85680000  0.26120000  1
  H  H25  1  0.64560000  0.57190000  0.34290000  1
  H  H26  1  0.82680000  0.78160000  0.35430000  1
  H  H27  1  0.74860000  0.73730000  0.40410000  1
  H  H28  1  0.71770000  0.61620000  0.29300000  1
  H  H29  1  0.92780000  0.70230000  0.29980000  1
  H  H30  1  0.64560000  0.07190000  0.84290000  1
  H  H31  1  0.82680000  0.28160000  0.85430000  1
  H  H32  1  0.74860000  0.23730000  0.90410000  1
  H  H33  1  0.71770000  0.11620000  0.79300000  1
  H  H34  1  0.92780000  0.20230000  0.79980000  1
  H  H35  1  0.71740000  0.16430000  0.71180000  1
  H  H36  1  0.62930000  0.20570000  0.70610000  1
  H  H37  1  0.64180000  0.14320000  0.73880000  1
  H  H38  1  0.35440000  0.57190000  0.65710000  1
  H  H39  1  0.17320000  0.78160000  0.64570000  1
  H  H40  1  0.25140000  0.73730000  0.59590000  1
  H  H41  1  0.28230000  0.61620000  0.70700000  1
  H  H42  1  0.07220000  0.70230000  0.70020000  1
  H  H43  1  0.28260000  0.66430000  0.78820000  1
  H  H44  1  0.37070000  0.70570000  0.79390000  1
  H  H45  1  0.35820000  0.64320000  0.76120000  1
  H  H46  1  0.35440000  0.07190000  0.15710000  1
  H  H47  1  0.17320000  0.28160000  0.14570000  1
  H  H48  1  0.25140000  0.23730000  0.09590000  1
  H  H49  1  0.28230000  0.11620000  0.20700000  1
  H  H50  1  0.07220000  0.20230000  0.20020000  1
  H  H51  1  0.35440000  0.42810000  0.34290000  1
  H  H52  1  0.17320000  0.21840000  0.35430000  1
  H  H53  1  0.25140000  0.26270000  0.40410000  1
  H  H54  1  0.28230000  0.38380000  0.29300000  1
  H  H55  1  0.07220000  0.29770000  0.29980000  1
  H  H56  1  0.28260000  0.33570000  0.21180000  1
  H  H57  1  0.37070000  0.29430000  0.20610000  1
  H  H58  1  0.35820000  0.35680000  0.23880000  1
  H  H59  1  0.35440000  0.92810000  0.84290000  1
  H  H60  1  0.17320000  0.71840000  0.85430000  1
  H  H61  1  0.25140000  0.76270000  0.90410000  1
  H  H62  1  0.28230000  0.88380000  0.79300000  1
  H  H63  1  0.07220000  0.79770000  0.79980000  1
  H  H64  1  0.35440000  0.57190000  0.34290000  1
  H  H65  1  0.17320000  0.78160000  0.35430000  1
  H  H66  1  0.25140000  0.73730000  0.40410000  1
  H  H67  1  0.28230000  0.61620000  0.29300000  1
  H  H68  1  0.07220000  0.70230000  0.29980000  1
  H  H69  1  0.28260000  0.66430000  0.21180000  1
  H  H70  1  0.37070000  0.70570000  0.20610000  1
  H  H71  1  0.35820000  0.64320000  0.23880000  1
  H  H72  1  0.35440000  0.07190000  0.84290000  1
  H  H73  1  0.17320000  0.28160000  0.85430000  1
  H  H74  1  0.25140000  0.23730000  0.90410000  1
  H  H75  1  0.28230000  0.11620000  0.79300000  1
  H  H76  1  0.07220000  0.20230000  0.79980000  1
  H  H77  1  0.35440000  0.42810000  0.65710000  1
  H  H78  1  0.17320000  0.21840000  0.64570000  1
  H  H79  1  0.25140000  0.26270000  0.59590000  1
  H  H80  1  0.28230000  0.38380000  0.70700000  1
  H  H81  1  0.07220000  0.29770000  0.70020000  1
  H  H82  1  0.28260000  0.33570000  0.78820000  1
  H  H83  1  0.37070000  0.29430000  0.79390000  1
  H  H84  1  0.35820000  0.35680000  0.76120000  1
  H  H85  1  0.35440000  0.92810000  0.15710000  1
  H  H86  1  0.17320000  0.71840000  0.14570000  1
  H  H87  1  0.25140000  0.76270000  0.09590000  1
  H  H88  1  0.28230000  0.88380000  0.20700000  1
  H  H89  1  0.07220000  0.79770000  0.20020000  1
  H  H90  1  0.64560000  0.42810000  0.34290000  1
  H  H91  1  0.82680000  0.21840000  0.35430000  1
  H  H92  1  0.74860000  0.26270000  0.40410000  1
  H  H93  1  0.71770000  0.38380000  0.29300000  1
  H  H94  1  0.92780000  0.29770000  0.29980000  1
  H  H95  1  0.64560000  0.92810000  0.84290000  1
  H  H96  1  0.82680000  0.71840000  0.85430000  1
  H  H97  1  0.74860000  0.76270000  0.90410000  1
  H  H98  1  0.71770000  0.88380000  0.79300000  1
  H  H99  1  0.92780000  0.79770000  0.79980000  1
  H  H100  1  0.71740000  0.83570000  0.71180000  1
  H  H101  1  0.62930000  0.79430000  0.70610000  1
  H  H102  1  0.64180000  0.85680000  0.73880000  1
  H  H103  1  0.64560000  0.57190000  0.65710000  1
  H  H104  1  0.82680000  0.78160000  0.64570000  1
  H  H105  1  0.74860000  0.73730000  0.59590000  1
  H  H106  1  0.71770000  0.61620000  0.70700000  1
  H  H107  1  0.92780000  0.70230000  0.70020000  1
  H  H108  1  0.64560000  0.07190000  0.15710000  1
  H  H109  1  0.82680000  0.28160000  0.14570000  1
  H  H110  1  0.74860000  0.23730000  0.09590000  1
  H  H111  1  0.71770000  0.11620000  0.20700000  1
  H  H112  1  0.92780000  0.20230000  0.20020000  1
  H  H113  1  0.71740000  0.16430000  0.28820000  1
  H  H114  1  0.62930000  0.20570000  0.29390000  1
  H  H115  1  0.64180000  0.14320000  0.26120000  1
  C  C116  1  0.63920000  0.37850000  0.58880000  1
  C  C117  1  0.68930000  0.35000000  0.62000000  1
  C  C118  1  0.77330000  0.30130000  0.68370000  1
  C  C119  1  0.68170000  0.38450000  0.65410000  1
  C  C120  1  0.78850000  0.26050000  0.64820000  1
  C  C121  1  0.74240000  0.28880000  0.61900000  1
  C  C122  1  0.72530000  0.35720000  0.68410000  1
  C  C123  1  0.81730000  0.27090000  0.71860000  1
  C  C124  1  0.90110000  0.27490000  0.72100000  1
  C  C125  1  0.63920000  0.87850000  0.08880000  1
  C  C126  1  0.68930000  0.85000000  0.12000000  1
  C  C127  1  0.77330000  0.80130000  0.18370000  1
  C  C128  1  0.68170000  0.88450000  0.15410000  1
  C  C129  1  0.78850000  0.76050000  0.14820000  1
  C  C130  1  0.74240000  0.78880000  0.11900000  1
  C  C131  1  0.72530000  0.85720000  0.18410000  1
  C  C132  1  0.81730000  0.77090000  0.21860000  1
  C  C133  1  0.90110000  0.77490000  0.22100000  1
  C  C134  1  0.66800000  0.81500000  0.27550000  1
  C  C135  1  0.63920000  0.62150000  0.41120000  1
  C  C136  1  0.68930000  0.65000000  0.38000000  1
  C  C137  1  0.77330000  0.69870000  0.31630000  1
  C  C138  1  0.68170000  0.61550000  0.34590000  1
  C  C139  1  0.78850000  0.73950000  0.35180000  1
  C  C140  1  0.74240000  0.71120000  0.38100000  1
  C  C141  1  0.72530000  0.64280000  0.31590000  1
  C  C142  1  0.81730000  0.72910000  0.28140000  1
  C  C143  1  0.90110000  0.72510000  0.27900000  1
  C  C144  1  0.63920000  0.12150000  0.91120000  1
  C  C145  1  0.68930000  0.15000000  0.88000000  1
  C  C146  1  0.77330000  0.19870000  0.81630000  1
  C  C147  1  0.68170000  0.11550000  0.84590000  1
  C  C148  1  0.78850000  0.23950000  0.85180000  1
  C  C149  1  0.74240000  0.21120000  0.88100000  1
  C  C150  1  0.72530000  0.14280000  0.81590000  1
  C  C151  1  0.81730000  0.22910000  0.78140000  1
  C  C152  1  0.90110000  0.22510000  0.77900000  1
  C  C153  1  0.66800000  0.18500000  0.72450000  1
  C  C154  1  0.36080000  0.62150000  0.58880000  1
  C  C155  1  0.31070000  0.65000000  0.62000000  1
  C  C156  1  0.22670000  0.69870000  0.68370000  1
  C  C157  1  0.31830000  0.61550000  0.65410000  1
  C  C158  1  0.21150000  0.73950000  0.64820000  1
  C  C159  1  0.25760000  0.71120000  0.61900000  1
  C  C160  1  0.27470000  0.64280000  0.68410000  1
  C  C161  1  0.18270000  0.72910000  0.71860000  1
  C  C162  1  0.09890000  0.72510000  0.72100000  1
  C  C163  1  0.33200000  0.68500000  0.77550000  1
  C  C164  1  0.36080000  0.12150000  0.08880000  1
  C  C165  1  0.31070000  0.15000000  0.12000000  1
  C  C166  1  0.22670000  0.19870000  0.18370000  1
  C  C167  1  0.31830000  0.11550000  0.15410000  1
  C  C168  1  0.21150000  0.23950000  0.14820000  1
  C  C169  1  0.25760000  0.21120000  0.11900000  1
  C  C170  1  0.27470000  0.14280000  0.18410000  1
  C  C171  1  0.18270000  0.22910000  0.21860000  1
  C  C172  1  0.09890000  0.22510000  0.22100000  1
  C  C173  1  0.36080000  0.37850000  0.41120000  1
  C  C174  1  0.31070000  0.35000000  0.38000000  1
  C  C175  1  0.22670000  0.30130000  0.31630000  1
  C  C176  1  0.31830000  0.38450000  0.34590000  1
  C  C177  1  0.21150000  0.26050000  0.35180000  1
  C  C178  1  0.25760000  0.28880000  0.38100000  1
  C  C179  1  0.27470000  0.35720000  0.31590000  1
  C  C180  1  0.18270000  0.27090000  0.28140000  1
  C  C181  1  0.09890000  0.27490000  0.27900000  1
  C  C182  1  0.33200000  0.31500000  0.22450000  1
  C  C183  1  0.36080000  0.87850000  0.91120000  1
  C  C184  1  0.31070000  0.85000000  0.88000000  1
  C  C185  1  0.22670000  0.80130000  0.81630000  1
  C  C186  1  0.31830000  0.88450000  0.84590000  1
  C  C187  1  0.21150000  0.76050000  0.85180000  1
  C  C188  1  0.25760000  0.78880000  0.88100000  1
  C  C189  1  0.27470000  0.85720000  0.81590000  1
  C  C190  1  0.18270000  0.77090000  0.78140000  1
  C  C191  1  0.09890000  0.77490000  0.77900000  1
  C  C192  1  0.36080000  0.62150000  0.41120000  1
  C  C193  1  0.31070000  0.65000000  0.38000000  1
  C  C194  1  0.22670000  0.69870000  0.31630000  1
  C  C195  1  0.31830000  0.61550000  0.34590000  1
  C  C196  1  0.21150000  0.73950000  0.35180000  1
  C  C197  1  0.25760000  0.71120000  0.38100000  1
  C  C198  1  0.27470000  0.64280000  0.31590000  1
  C  C199  1  0.18270000  0.72910000  0.28140000  1
  C  C200  1  0.09890000  0.72510000  0.27900000  1
  C  C201  1  0.33200000  0.68500000  0.22450000  1
  C  C202  1  0.36080000  0.12150000  0.91120000  1
  C  C203  1  0.31070000  0.15000000  0.88000000  1
  C  C204  1  0.22670000  0.19870000  0.81630000  1
  C  C205  1  0.31830000  0.11550000  0.84590000  1
  C  C206  1  0.21150000  0.23950000  0.85180000  1
  C  C207  1  0.25760000  0.21120000  0.88100000  1
  C  C208  1  0.27470000  0.14280000  0.81590000  1
  C  C209  1  0.18270000  0.22910000  0.78140000  1
  C  C210  1  0.09890000  0.22510000  0.77900000  1
  C  C211  1  0.36080000  0.37850000  0.58880000  1
  C  C212  1  0.31070000  0.35000000  0.62000000  1
  C  C213  1  0.22670000  0.30130000  0.68370000  1
  C  C214  1  0.31830000  0.38450000  0.65410000  1
  C  C215  1  0.21150000  0.26050000  0.64820000  1
  C  C216  1  0.25760000  0.28880000  0.61900000  1
  C  C217  1  0.27470000  0.35720000  0.68410000  1
  C  C218  1  0.18270000  0.27090000  0.71860000  1
  C  C219  1  0.09890000  0.27490000  0.72100000  1
  C  C220  1  0.33200000  0.31500000  0.77550000  1
  C  C221  1  0.36080000  0.87850000  0.08880000  1
  C  C222  1  0.31070000  0.85000000  0.12000000  1
  C  C223  1  0.22670000  0.80130000  0.18370000  1
  C  C224  1  0.31830000  0.88450000  0.15410000  1
  C  C225  1  0.21150000  0.76050000  0.14820000  1
  C  C226  1  0.25760000  0.78880000  0.11900000  1
  C  C227  1  0.27470000  0.85720000  0.18410000  1
  C  C228  1  0.18270000  0.77090000  0.21860000  1
  C  C229  1  0.09890000  0.77490000  0.22100000  1
  C  C230  1  0.63920000  0.37850000  0.41120000  1
  C  C231  1  0.68930000  0.35000000  0.38000000  1
  C  C232  1  0.77330000  0.30130000  0.31630000  1
  C  C233  1  0.68170000  0.38450000  0.34590000  1
  C  C234  1  0.78850000  0.26050000  0.35180000  1
  C  C235  1  0.74240000  0.28880000  0.38100000  1
  C  C236  1  0.72530000  0.35720000  0.31590000  1
  C  C237  1  0.81730000  0.27090000  0.28140000  1
  C  C238  1  0.90110000  0.27490000  0.27900000  1
  C  C239  1  0.63920000  0.87850000  0.91120000  1
  C  C240  1  0.68930000  0.85000000  0.88000000  1
  C  C241  1  0.77330000  0.80130000  0.81630000  1
  C  C242  1  0.68170000  0.88450000  0.84590000  1
  C  C243  1  0.78850000  0.76050000  0.85180000  1
  C  C244  1  0.74240000  0.78880000  0.88100000  1
  C  C245  1  0.72530000  0.85720000  0.81590000  1
  C  C246  1  0.81730000  0.77090000  0.78140000  1
  C  C247  1  0.90110000  0.77490000  0.77900000  1
  C  C248  1  0.66800000  0.81500000  0.72450000  1
  C  C249  1  0.63920000  0.62150000  0.58880000  1
  C  C250  1  0.68930000  0.65000000  0.62000000  1
  C  C251  1  0.77330000  0.69870000  0.68370000  1
  C  C252  1  0.68170000  0.61550000  0.65410000  1
  C  C253  1  0.78850000  0.73950000  0.64820000  1
  C  C254  1  0.74240000  0.71120000  0.61900000  1
  C  C255  1  0.72530000  0.64280000  0.68410000  1
  C  C256  1  0.81730000  0.72910000  0.71860000  1
  C  C257  1  0.90110000  0.72510000  0.72100000  1
  C  C258  1  0.63920000  0.12150000  0.08880000  1
  C  C259  1  0.68930000  0.15000000  0.12000000  1
  C  C260  1  0.77330000  0.19870000  0.18370000  1
  C  C261  1  0.68170000  0.11550000  0.15410000  1
  C  C262  1  0.78850000  0.23950000  0.14820000  1
  C  C263  1  0.74240000  0.21120000  0.11900000  1
  C  C264  1  0.72530000  0.14280000  0.18410000  1
  C  C265  1  0.81730000  0.22910000  0.21860000  1
  C  C266  1  0.90110000  0.22510000  0.22100000  1
  C  C267  1  0.66800000  0.18500000  0.27550000  1
  C  C268  1  0.95540000  0.25000000  0.75000000  1
  C  C269  1  0.77700000  0.25000000  0.75000000  1
  C  C270  1  0.95540000  0.75000000  0.25000000  1
  C  C271  1  0.77700000  0.75000000  0.25000000  1
  C  C272  1  0.04460000  0.75000000  0.75000000  1
  C  C273  1  0.22300000  0.75000000  0.75000000  1
  C  C274  1  0.04460000  0.25000000  0.25000000  1
  C  C275  1  0.22300000  0.25000000  0.25000000  1
  C  C276  1  0.04460000  0.75000000  0.25000000  1
  C  C277  1  0.22300000  0.75000000  0.25000000  1
  C  C278  1  0.04460000  0.25000000  0.75000000  1
  C  C279  1  0.22300000  0.25000000  0.75000000  1
  C  C280  1  0.95540000  0.25000000  0.25000000  1
  C  C281  1  0.77700000  0.25000000  0.25000000  1
  C  C282  1  0.95540000  0.75000000  0.75000000  1
  C  C283  1  0.77700000  0.75000000  0.75000000  1
  O  O284  1  0.58140000  0.42320000  0.59820000  1
  O  O285  1  0.65630000  0.35730000  0.55670000  1
  O  O286  1  0.58140000  0.92320000  0.09820000  1
  O  O287  1  0.65630000  0.85730000  0.05670000  1
  O  O288  1  0.58140000  0.57680000  0.40180000  1
  O  O289  1  0.65630000  0.64270000  0.44330000  1
  O  O290  1  0.58140000  0.07680000  0.90180000  1
  O  O291  1  0.65630000  0.14270000  0.94330000  1
  O  O292  1  0.41860000  0.57680000  0.59820000  1
  O  O293  1  0.34370000  0.64270000  0.55670000  1
  O  O294  1  0.41860000  0.07680000  0.09820000  1
  O  O295  1  0.34370000  0.14270000  0.05670000  1
  O  O296  1  0.41860000  0.42320000  0.40180000  1
  O  O297  1  0.34370000  0.35730000  0.44330000  1
  O  O298  1  0.41860000  0.92320000  0.90180000  1
  O  O299  1  0.34370000  0.85730000  0.94330000  1
  O  O300  1  0.41860000  0.57680000  0.40180000  1
  O  O301  1  0.34370000  0.64270000  0.44330000  1
  O  O302  1  0.41860000  0.07680000  0.90180000  1
  O  O303  1  0.34370000  0.14270000  0.94330000  1
  O  O304  1  0.41860000  0.42320000  0.59820000  1
  O  O305  1  0.34370000  0.35730000  0.55670000  1
  O  O306  1  0.41860000  0.92320000  0.09820000  1
  O  O307  1  0.34370000  0.85730000  0.05670000  1
  O  O308  1  0.58140000  0.42320000  0.40180000  1
  O  O309  1  0.65630000  0.35730000  0.44330000  1
  O  O310  1  0.58140000  0.92320000  0.90180000  1
  O  O311  1  0.65630000  0.85730000  0.94330000  1
  O  O312  1  0.58140000  0.57680000  0.59820000  1
  O  O313  1  0.65630000  0.64270000  0.55670000  1
  O  O314  1  0.58140000  0.07680000  0.09820000  1
  O  O315  1  0.65630000  0.14270000  0.05670000  1
  O  O316  1  0.39110000  0.50000000  0.53190000  1
  O  O317  1  0.39110000  0.00000000  0.03190000  1
  O  O318  1  0.39110000  0.50000000  0.46810000  1
  O  O319  1  0.39110000  0.00000000  0.96810000  1
  O  O320  1  0.60890000  0.50000000  0.53190000  1
  O  O321  1  0.60890000  0.00000000  0.03190000  1
  O  O322  1  0.60890000  0.50000000  0.46810000  1
  O  O323  1  0.60890000  0.00000000  0.96810000  1
  O  O324  1  0.50000000  0.38980000  0.53380000  1
  O  O325  1  0.50000000  0.88980000  0.03380000  1
  O  O326  1  0.50000000  0.61020000  0.46620000  1
  O  O327  1  0.50000000  0.11020000  0.96620000  1
  O  O328  1  0.50000000  0.61020000  0.53380000  1
  O  O329  1  0.50000000  0.11020000  0.03380000  1
  O  O330  1  0.50000000  0.38980000  0.46620000  1
  O  O331  1  0.50000000  0.88980000  0.96620000  1
  O  O332  1  0.69390000  0.25000000  0.75000000  1
  O  O333  1  0.69390000  0.75000000  0.25000000  1
  O  O334  1  0.30610000  0.75000000  0.75000000  1
  O  O335  1  0.30610000  0.25000000  0.25000000  1
  O  O336  1  0.30610000  0.75000000  0.25000000  1
  O  O337  1  0.30610000  0.25000000  0.75000000  1
  O  O338  1  0.69390000  0.25000000  0.25000000  1
  O  O339  1  0.69390000  0.75000000  0.75000000  1
