# generated using pymatgen
data_Zr3H26(C3O)14
_symmetry_space_group_name_H-M   'P 1'
_cell_length_a   20.20744686
_cell_length_b   20.20744686
_cell_length_c   31.42590000
_cell_angle_alpha   90.00000000
_cell_angle_beta   90.00000000
_cell_angle_gamma   119.06846451
_symmetry_Int_Tables_number   1
_chemical_formula_structural   Zr3H26(C3O)14
_chemical_formula_sum   'Zr12 H104 C168 O56'
_cell_volume   11216.09833641
_cell_formula_units_Z   4
loop_
 _symmetry_equiv_pos_site_id
 _symmetry_equiv_pos_as_xyz
  1  'x, y, z'
loop_
 _atom_site_type_symbol
 _atom_site_label
 _atom_site_symmetry_multiplicity
 _atom_site_fract_x
 _atom_site_fract_y
 _atom_site_fract_z
 _atom_site_occupancy
  C  C0  1  0.20244000  0.01436000  0.31819000  1
  C  C1  1  0.80867000  0.98873000  0.32256000  1
  C  C2  1  0.50143000  0.00117000  0.47680000  1
  C  C3  1  0.26754000  0.01546000  0.34244000  1
  C  C4  1  0.74744000  0.99316000  0.34692000  1
  C  C5  1  0.30353000  0.06467000  0.37291000  1
  C  C6  1  0.36285000  0.06295000  0.39536000  1
  C  C7  1  0.55923000  0.99777000  0.45430000  1
  C  C8  1  0.73130000  0.05090000  0.33920000  1
  C  C9  1  0.44944000  0.01016000  0.45257000  1
  C  C10  1  0.62715000  0.99805000  0.38807000  1
  C  C11  1  0.70673000  0.94087000  0.37705000  1
  C  C12  1  0.38568000  0.01212000  0.38566000  1
  C  C13  1  0.56500000  0.00220000  0.41040000  1
  C  C14  1  0.50840000  0.00760000  0.38742000  1
  C  C15  1  0.45045000  0.01195000  0.40814000  1
  C  C16  1  0.66986000  0.05114000  0.35810000  1
  C  C17  1  0.28802000  0.95998000  0.33010000  1
  C  C18  1  0.34632000  0.95868000  0.35220000  1
  C  C19  1  0.64546000  0.94154000  0.39680000  1
  C  C20  1  0.53120000  0.08840000  0.32430000  1
  C  C21  1  0.79756000  0.98564000  0.81819000  1
  C  C22  1  0.19133000  0.01127000  0.82256000  1
  C  C23  1  0.49857000  0.99883000  0.97680000  1
  C  C24  1  0.73246000  0.98454000  0.84244000  1
  C  C25  1  0.25256000  0.00684000  0.84692000  1
  C  C26  1  0.69647000  0.93533000  0.87291000  1
  C  C27  1  0.63715000  0.93705000  0.89536000  1
  C  C28  1  0.44077000  0.00223000  0.95430000  1
  C  C29  1  0.26870000  0.94910000  0.83920000  1
  C  C30  1  0.55056000  0.98984000  0.95257000  1
  C  C31  1  0.37285000  0.00195000  0.88807000  1
  C  C32  1  0.29327000  0.05913000  0.87705000  1
  C  C33  1  0.61432000  0.98788000  0.88566000  1
  C  C34  1  0.43500000  0.99780000  0.91040000  1
  C  C35  1  0.49160000  0.99240000  0.88742000  1
  C  C36  1  0.54955000  0.98805000  0.90814000  1
  C  C37  1  0.33014000  0.94886000  0.85810000  1
  C  C38  1  0.71198000  0.04002000  0.83010000  1
  C  C39  1  0.65368000  0.04132000  0.85220000  1
  C  C40  1  0.35454000  0.05846000  0.89680000  1
  C  C41  1  0.46880000  0.91160000  0.82430000  1
  C  C42  1  0.01436000  0.20244000  0.68181000  1
  C  C43  1  0.98873000  0.80867000  0.67744000  1
  C  C44  1  0.00117000  0.50143000  0.52320000  1
  C  C45  1  0.01546000  0.26754000  0.65756000  1
  C  C46  1  0.99316000  0.74744000  0.65308000  1
  C  C47  1  0.06467000  0.30353000  0.62709000  1
  C  C48  1  0.06295000  0.36285000  0.60464000  1
  C  C49  1  0.99777000  0.55923000  0.54570000  1
  C  C50  1  0.05090000  0.73130000  0.66080000  1
  C  C51  1  0.01016000  0.44944000  0.54743000  1
  C  C52  1  0.99805000  0.62715000  0.61193000  1
  C  C53  1  0.94087000  0.70673000  0.62295000  1
  C  C54  1  0.01212000  0.38568000  0.61434000  1
  C  C55  1  0.00220000  0.56500000  0.58960000  1
  C  C56  1  0.00760000  0.50840000  0.61258000  1
  C  C57  1  0.01195000  0.45045000  0.59186000  1
  C  C58  1  0.05114000  0.66986000  0.64190000  1
  C  C59  1  0.95998000  0.28802000  0.66990000  1
  C  C60  1  0.95868000  0.34632000  0.64780000  1
  C  C61  1  0.94154000  0.64546000  0.60320000  1
  C  C62  1  0.08840000  0.53120000  0.67570000  1
  C  C63  1  0.98564000  0.79756000  0.18181000  1
  C  C64  1  0.01127000  0.19133000  0.17744000  1
  C  C65  1  0.99883000  0.49857000  0.02320000  1
  C  C66  1  0.98454000  0.73246000  0.15756000  1
  C  C67  1  0.00684000  0.25256000  0.15308000  1
  C  C68  1  0.93533000  0.69647000  0.12709000  1
  C  C69  1  0.93705000  0.63715000  0.10464000  1
  C  C70  1  0.00223000  0.44077000  0.04570000  1
  C  C71  1  0.94910000  0.26870000  0.16080000  1
  C  C72  1  0.98984000  0.55056000  0.04743000  1
  C  C73  1  0.00195000  0.37285000  0.11193000  1
  C  C74  1  0.05913000  0.29327000  0.12295000  1
  C  C75  1  0.98788000  0.61432000  0.11434000  1
  C  C76  1  0.99780000  0.43500000  0.08960000  1
  C  C77  1  0.99240000  0.49160000  0.11258000  1
  C  C78  1  0.98805000  0.54955000  0.09186000  1
  C  C79  1  0.94886000  0.33014000  0.14190000  1
  C  C80  1  0.04002000  0.71198000  0.16990000  1
  C  C81  1  0.04132000  0.65368000  0.14780000  1
  C  C82  1  0.05846000  0.35454000  0.10320000  1
  C  C83  1  0.91160000  0.46880000  0.17570000  1
  C  C84  1  0.79756000  0.98564000  0.68181000  1
  C  C85  1  0.19133000  0.01127000  0.67744000  1
  C  C86  1  0.49857000  0.99883000  0.52320000  1
  C  C87  1  0.73246000  0.98454000  0.65756000  1
  C  C88  1  0.25256000  0.00684000  0.65308000  1
  C  C89  1  0.69647000  0.93533000  0.62709000  1
  C  C90  1  0.63715000  0.93705000  0.60464000  1
  C  C91  1  0.44077000  0.00223000  0.54570000  1
  C  C92  1  0.26870000  0.94910000  0.66080000  1
  C  C93  1  0.55056000  0.98984000  0.54743000  1
  C  C94  1  0.37285000  0.00195000  0.61193000  1
  C  C95  1  0.29327000  0.05913000  0.62295000  1
  C  C96  1  0.61432000  0.98788000  0.61434000  1
  C  C97  1  0.43500000  0.99780000  0.58960000  1
  C  C98  1  0.49160000  0.99240000  0.61258000  1
  C  C99  1  0.54955000  0.98805000  0.59186000  1
  C  C100  1  0.33014000  0.94886000  0.64190000  1
  C  C101  1  0.71198000  0.04002000  0.66990000  1
  C  C102  1  0.65368000  0.04132000  0.64780000  1
  C  C103  1  0.35454000  0.05846000  0.60320000  1
  C  C104  1  0.46880000  0.91160000  0.67570000  1
  C  C105  1  0.20244000  0.01436000  0.18181000  1
  C  C106  1  0.80867000  0.98873000  0.17744000  1
  C  C107  1  0.50143000  0.00117000  0.02320000  1
  C  C108  1  0.26754000  0.01546000  0.15756000  1
  C  C109  1  0.74744000  0.99316000  0.15308000  1
  C  C110  1  0.30353000  0.06467000  0.12709000  1
  C  C111  1  0.36285000  0.06295000  0.10464000  1
  C  C112  1  0.55923000  0.99777000  0.04570000  1
  C  C113  1  0.73130000  0.05090000  0.16080000  1
  C  C114  1  0.44944000  0.01016000  0.04743000  1
  C  C115  1  0.62715000  0.99805000  0.11193000  1
  C  C116  1  0.70673000  0.94087000  0.12295000  1
  C  C117  1  0.38568000  0.01212000  0.11434000  1
  C  C118  1  0.56500000  0.00220000  0.08960000  1
  C  C119  1  0.50840000  0.00760000  0.11258000  1
  C  C120  1  0.45045000  0.01195000  0.09186000  1
  C  C121  1  0.66986000  0.05114000  0.14190000  1
  C  C122  1  0.28802000  0.95998000  0.16990000  1
  C  C123  1  0.34632000  0.95868000  0.14780000  1
  C  C124  1  0.64546000  0.94154000  0.10320000  1
  C  C125  1  0.53120000  0.08840000  0.17570000  1
  C  C126  1  0.98564000  0.79756000  0.31819000  1
  C  C127  1  0.01127000  0.19133000  0.32256000  1
  C  C128  1  0.99883000  0.49857000  0.47680000  1
  C  C129  1  0.98454000  0.73246000  0.34244000  1
  C  C130  1  0.00684000  0.25256000  0.34692000  1
  C  C131  1  0.93533000  0.69647000  0.37291000  1
  C  C132  1  0.93705000  0.63715000  0.39536000  1
  C  C133  1  0.00223000  0.44077000  0.45430000  1
  C  C134  1  0.94910000  0.26870000  0.33920000  1
  C  C135  1  0.98984000  0.55056000  0.45257000  1
  C  C136  1  0.00195000  0.37285000  0.38807000  1
  C  C137  1  0.05913000  0.29327000  0.37705000  1
  C  C138  1  0.98788000  0.61432000  0.38566000  1
  C  C139  1  0.99780000  0.43500000  0.41040000  1
  C  C140  1  0.99240000  0.49160000  0.38742000  1
  C  C141  1  0.98805000  0.54955000  0.40814000  1
  C  C142  1  0.94886000  0.33014000  0.35810000  1
  C  C143  1  0.04002000  0.71198000  0.33010000  1
  C  C144  1  0.04132000  0.65368000  0.35220000  1
  C  C145  1  0.05846000  0.35454000  0.39680000  1
  C  C146  1  0.91160000  0.46880000  0.32430000  1
  C  C147  1  0.01436000  0.20244000  0.81819000  1
  C  C148  1  0.98873000  0.80867000  0.82256000  1
  C  C149  1  0.00117000  0.50143000  0.97680000  1
  C  C150  1  0.01546000  0.26754000  0.84244000  1
  C  C151  1  0.99316000  0.74744000  0.84692000  1
  C  C152  1  0.06467000  0.30353000  0.87291000  1
  C  C153  1  0.06295000  0.36285000  0.89536000  1
  C  C154  1  0.99777000  0.55923000  0.95430000  1
  C  C155  1  0.05090000  0.73130000  0.83920000  1
  C  C156  1  0.01016000  0.44944000  0.95257000  1
  C  C157  1  0.99805000  0.62715000  0.88807000  1
  C  C158  1  0.94087000  0.70673000  0.87705000  1
  C  C159  1  0.01212000  0.38568000  0.88566000  1
  C  C160  1  0.00220000  0.56500000  0.91040000  1
  C  C161  1  0.00760000  0.50840000  0.88742000  1
  C  C162  1  0.01195000  0.45045000  0.90814000  1
  C  C163  1  0.05114000  0.66986000  0.85810000  1
  C  C164  1  0.95998000  0.28802000  0.83010000  1
  C  C165  1  0.95868000  0.34632000  0.85220000  1
  C  C166  1  0.94154000  0.64546000  0.89680000  1
  C  C167  1  0.08840000  0.53120000  0.82430000  1
  H  H168  1  0.28910000  0.10170000  0.37980000  1
  H  H169  1  0.38730000  0.09810000  0.41770000  1
  H  H170  1  0.59650000  0.99210000  0.46990000  1
  H  H171  1  0.76290000  0.09110000  0.32060000  1
  H  H172  1  0.41090000  0.01550000  0.46690000  1
  H  H173  1  0.72030000  0.90350000  0.38470000  1
  H  H174  1  0.65670000  0.08870000  0.35020000  1
  H  H175  1  0.26260000  0.92540000  0.30760000  1
  H  H176  1  0.36070000  0.92170000  0.34520000  1
  H  H177  1  0.61570000  0.90270000  0.41660000  1
  H  H178  1  0.55060000  0.12620000  0.34710000  1
  H  H179  1  0.48580000  0.08640000  0.31190000  1
  H  H180  1  0.56990000  0.10230000  0.30210000  1
  H  H181  1  0.71090000  0.89830000  0.87980000  1
  H  H182  1  0.61270000  0.90190000  0.91770000  1
  H  H183  1  0.40350000  0.00790000  0.96990000  1
  H  H184  1  0.23710000  0.90890000  0.82060000  1
  H  H185  1  0.58910000  0.98450000  0.96690000  1
  H  H186  1  0.27970000  0.09650000  0.88470000  1
  H  H187  1  0.34330000  0.91130000  0.85020000  1
  H  H188  1  0.73740000  0.07460000  0.80760000  1
  H  H189  1  0.63930000  0.07830000  0.84520000  1
  H  H190  1  0.38430000  0.09730000  0.91660000  1
  H  H191  1  0.44940000  0.87380000  0.84710000  1
  H  H192  1  0.51420000  0.91360000  0.81190000  1
  H  H193  1  0.43010000  0.89770000  0.80210000  1
  H  H194  1  0.10170000  0.28910000  0.62020000  1
  H  H195  1  0.09810000  0.38730000  0.58230000  1
  H  H196  1  0.99210000  0.59650000  0.53010000  1
  H  H197  1  0.09110000  0.76290000  0.67940000  1
  H  H198  1  0.01550000  0.41090000  0.53310000  1
  H  H199  1  0.90350000  0.72030000  0.61530000  1
  H  H200  1  0.08870000  0.65670000  0.64980000  1
  H  H201  1  0.92540000  0.26260000  0.69240000  1
  H  H202  1  0.92170000  0.36070000  0.65480000  1
  H  H203  1  0.90270000  0.61570000  0.58340000  1
  H  H204  1  0.12620000  0.55060000  0.65290000  1
  H  H205  1  0.08640000  0.48580000  0.68810000  1
  H  H206  1  0.10230000  0.56990000  0.69790000  1
  H  H207  1  0.89830000  0.71090000  0.12020000  1
  H  H208  1  0.90190000  0.61270000  0.08230000  1
  H  H209  1  0.00790000  0.40350000  0.03010000  1
  H  H210  1  0.90890000  0.23710000  0.17940000  1
  H  H211  1  0.98450000  0.58910000  0.03310000  1
  H  H212  1  0.09650000  0.27970000  0.11530000  1
  H  H213  1  0.91130000  0.34330000  0.14980000  1
  H  H214  1  0.07460000  0.73740000  0.19240000  1
  H  H215  1  0.07830000  0.63930000  0.15480000  1
  H  H216  1  0.09730000  0.38430000  0.08340000  1
  H  H217  1  0.87380000  0.44940000  0.15290000  1
  H  H218  1  0.91360000  0.51420000  0.18810000  1
  H  H219  1  0.89770000  0.43010000  0.19790000  1
  H  H220  1  0.71090000  0.89830000  0.62020000  1
  H  H221  1  0.61270000  0.90190000  0.58230000  1
  H  H222  1  0.40350000  0.00790000  0.53010000  1
  H  H223  1  0.23710000  0.90890000  0.67940000  1
  H  H224  1  0.58910000  0.98450000  0.53310000  1
  H  H225  1  0.27970000  0.09650000  0.61530000  1
  H  H226  1  0.34330000  0.91130000  0.64980000  1
  H  H227  1  0.73740000  0.07460000  0.69240000  1
  H  H228  1  0.63930000  0.07830000  0.65480000  1
  H  H229  1  0.38430000  0.09730000  0.58340000  1
  H  H230  1  0.44940000  0.87380000  0.65290000  1
  H  H231  1  0.51420000  0.91360000  0.68810000  1
  H  H232  1  0.43010000  0.89770000  0.69790000  1
  H  H233  1  0.28910000  0.10170000  0.12020000  1
  H  H234  1  0.38730000  0.09810000  0.08230000  1
  H  H235  1  0.59650000  0.99210000  0.03010000  1
  H  H236  1  0.76290000  0.09110000  0.17940000  1
  H  H237  1  0.41090000  0.01550000  0.03310000  1
  H  H238  1  0.72030000  0.90350000  0.11530000  1
  H  H239  1  0.65670000  0.08870000  0.14980000  1
  H  H240  1  0.26260000  0.92540000  0.19240000  1
  H  H241  1  0.36070000  0.92170000  0.15480000  1
  H  H242  1  0.61570000  0.90270000  0.08340000  1
  H  H243  1  0.55060000  0.12620000  0.15290000  1
  H  H244  1  0.48580000  0.08640000  0.18810000  1
  H  H245  1  0.56990000  0.10230000  0.19790000  1
  H  H246  1  0.89830000  0.71090000  0.37980000  1
  H  H247  1  0.90190000  0.61270000  0.41770000  1
  H  H248  1  0.00790000  0.40350000  0.46990000  1
  H  H249  1  0.90890000  0.23710000  0.32060000  1
  H  H250  1  0.98450000  0.58910000  0.46690000  1
  H  H251  1  0.09650000  0.27970000  0.38470000  1
  H  H252  1  0.91130000  0.34330000  0.35020000  1
  H  H253  1  0.07460000  0.73740000  0.30760000  1
  H  H254  1  0.07830000  0.63930000  0.34520000  1
  H  H255  1  0.09730000  0.38430000  0.41660000  1
  H  H256  1  0.87380000  0.44940000  0.34710000  1
  H  H257  1  0.91360000  0.51420000  0.31190000  1
  H  H258  1  0.89770000  0.43010000  0.30210000  1
  H  H259  1  0.10170000  0.28910000  0.87980000  1
  H  H260  1  0.09810000  0.38730000  0.91770000  1
  H  H261  1  0.99210000  0.59650000  0.96990000  1
  H  H262  1  0.09110000  0.76290000  0.82060000  1
  H  H263  1  0.01550000  0.41090000  0.96690000  1
  H  H264  1  0.90350000  0.72030000  0.88470000  1
  H  H265  1  0.08870000  0.65670000  0.85020000  1
  H  H266  1  0.92540000  0.26260000  0.80760000  1
  H  H267  1  0.92170000  0.36070000  0.84520000  1
  H  H268  1  0.90270000  0.61570000  0.91660000  1
  H  H269  1  0.12620000  0.55060000  0.84710000  1
  H  H270  1  0.08640000  0.48580000  0.81190000  1
  H  H271  1  0.10230000  0.56990000  0.80210000  1
  O  O272  1  0.16867000  0.96025000  0.29173000  1
  O  O273  1  0.83689000  0.03631000  0.29255000  1
  O  O274  1  0.18354000  0.06386000  0.32771000  1
  O  O275  1  0.82647000  0.93993000  0.33189000  1
  O  O276  1  0.51032000  0.00668000  0.34340000  1
  O  O277  1  0.97085000  0.02915000  0.19881000  1
  O  O278  1  0.03871000  0.96129000  0.18862000  1
  O  O279  1  0.95478000  0.88802000  0.25000000  1
  O  O280  1  0.86947000  0.93833000  0.25000000  1
  O  O281  1  0.83133000  0.03975000  0.79173000  1
  O  O282  1  0.16311000  0.96369000  0.79255000  1
  O  O283  1  0.81646000  0.93614000  0.82771000  1
  O  O284  1  0.17353000  0.06007000  0.83189000  1
  O  O285  1  0.48968000  0.99332000  0.84340000  1
  O  O286  1  0.02915000  0.97085000  0.69881000  1
  O  O287  1  0.96129000  0.03871000  0.68862000  1
  O  O288  1  0.04522000  0.11198000  0.75000000  1
  O  O289  1  0.13053000  0.06167000  0.75000000  1
  O  O290  1  0.96025000  0.16867000  0.70827000  1
  O  O291  1  0.03631000  0.83689000  0.70745000  1
  O  O292  1  0.06386000  0.18354000  0.67229000  1
  O  O293  1  0.93993000  0.82647000  0.66811000  1
  O  O294  1  0.00668000  0.51032000  0.65660000  1
  O  O295  1  0.02915000  0.97085000  0.80119000  1
  O  O296  1  0.96129000  0.03871000  0.81138000  1
  O  O297  1  0.88802000  0.95478000  0.75000000  1
  O  O298  1  0.93833000  0.86947000  0.75000000  1
  O  O299  1  0.03975000  0.83133000  0.20827000  1
  O  O300  1  0.96369000  0.16311000  0.20745000  1
  O  O301  1  0.93614000  0.81646000  0.17229000  1
  O  O302  1  0.06007000  0.17353000  0.16811000  1
  O  O303  1  0.99332000  0.48968000  0.15660000  1
  O  O304  1  0.97085000  0.02915000  0.30119000  1
  O  O305  1  0.03871000  0.96129000  0.31138000  1
  O  O306  1  0.11198000  0.04522000  0.25000000  1
  O  O307  1  0.06167000  0.13053000  0.25000000  1
  O  O308  1  0.83133000  0.03975000  0.70827000  1
  O  O309  1  0.16311000  0.96369000  0.70745000  1
  O  O310  1  0.81646000  0.93614000  0.67229000  1
  O  O311  1  0.17353000  0.06007000  0.66811000  1
  O  O312  1  0.48968000  0.99332000  0.65660000  1
  O  O313  1  0.16867000  0.96025000  0.20827000  1
  O  O314  1  0.83689000  0.03631000  0.20745000  1
  O  O315  1  0.18354000  0.06386000  0.17229000  1
  O  O316  1  0.82647000  0.93993000  0.16811000  1
  O  O317  1  0.51032000  0.00668000  0.15660000  1
  O  O318  1  0.03975000  0.83133000  0.29173000  1
  O  O319  1  0.96369000  0.16311000  0.29255000  1
  O  O320  1  0.93614000  0.81646000  0.32771000  1
  O  O321  1  0.06007000  0.17353000  0.33189000  1
  O  O322  1  0.99332000  0.48968000  0.34340000  1
  O  O323  1  0.96025000  0.16867000  0.79173000  1
  O  O324  1  0.03631000  0.83689000  0.79255000  1
  O  O325  1  0.06386000  0.18354000  0.82771000  1
  O  O326  1  0.93993000  0.82647000  0.83189000  1
  O  O327  1  0.00668000  0.51032000  0.84340000  1
  Zr  Zr328  1  0.91517000  0.91129000  0.19362000  1
  Zr  Zr329  1  0.07203000  0.92797000  0.25000000  1
  Zr  Zr330  1  0.93225000  0.06775000  0.25000000  1
  Zr  Zr331  1  0.08483000  0.08871000  0.69362000  1
  Zr  Zr332  1  0.92797000  0.07203000  0.75000000  1
  Zr  Zr333  1  0.06775000  0.93225000  0.75000000  1
  Zr  Zr334  1  0.91129000  0.91517000  0.80638000  1
  Zr  Zr335  1  0.08871000  0.08483000  0.30638000  1
  Zr  Zr336  1  0.08483000  0.08871000  0.80638000  1
  Zr  Zr337  1  0.91517000  0.91129000  0.30638000  1
  Zr  Zr338  1  0.08871000  0.08483000  0.19362000  1
  Zr  Zr339  1  0.91129000  0.91517000  0.69362000  1
