# generated using pymatgen
data_Zr3H24C32Br3O16
_symmetry_space_group_name_H-M   'P 1'
_cell_length_a   15.09600000
_cell_length_b   24.27190000
_cell_length_c   24.27190000
_cell_angle_alpha   90.00000000
_cell_angle_beta   90.00000000
_cell_angle_gamma   90.00000000
_symmetry_Int_Tables_number   1
_chemical_formula_structural   Zr3H24C32Br3O16
_chemical_formula_sum   'Zr12 H96 C128 Br12 O64'
_cell_volume   8893.43295659
_cell_formula_units_Z   4
loop_
 _symmetry_equiv_pos_site_id
 _symmetry_equiv_pos_as_xyz
  1  'x, y, z'
loop_
 _atom_site_type_symbol
 _atom_site_label
 _atom_site_symmetry_multiplicity
 _atom_site_fract_x
 _atom_site_fract_y
 _atom_site_fract_z
 _atom_site_occupancy
  Zr  Zr0  1  0.50000000  0.50000000  0.89885000  1
  Zr  Zr1  1  0.61715000  0.57281000  0.00000000  1
  Zr  Zr2  1  1.00000000  0.10115000  0.50000000  1
  Zr  Zr3  1  0.11715000  0.00000000  0.57281000  1
  Zr  Zr4  1  0.50000000  0.50000000  0.10115000  1
  Zr  Zr5  1  0.61715000  0.42719000  0.00000000  1
  Zr  Zr6  1  1.00000000  0.89885000  0.50000000  1
  Zr  Zr7  1  0.11715000  0.00000000  0.42719000  1
  Zr  Zr8  1  0.38285000  0.57281000  0.00000000  1
  Zr  Zr9  1  0.88285000  0.00000000  0.57281000  1
  Zr  Zr10  1  0.38285000  0.42719000  0.00000000  1
  Zr  Zr11  1  0.88285000  0.00000000  0.42719000  1
  H  H12  1  0.40300000  0.39890000  0.76270000  1
  H  H13  1  0.24520000  0.32720000  0.87420000  1
  H  H14  1  0.18700000  0.26920000  0.80490000  1
  H  H15  1  0.40490000  0.37250000  0.67200000  1
  H  H16  1  0.31480000  0.34730000  0.64820000  1
  H  H17  1  0.39470000  0.30730000  0.66450000  1
  H  H18  1  0.90300000  0.23730000  0.39890000  1
  H  H19  1  0.74520000  0.12580000  0.32720000  1
  H  H20  1  0.68700000  0.19510000  0.26920000  1
  H  H21  1  0.90490000  0.32800000  0.37250000  1
  H  H22  1  0.81480000  0.35180000  0.34730000  1
  H  H23  1  0.89470000  0.33550000  0.30730000  1
  H  H24  1  0.40300000  0.60110000  0.23730000  1
  H  H25  1  0.24520000  0.67280000  0.12580000  1
  H  H26  1  0.18700000  0.73080000  0.19510000  1
  H  H27  1  0.40490000  0.62750000  0.32800000  1
  H  H28  1  0.31480000  0.65270000  0.35180000  1
  H  H29  1  0.39470000  0.69270000  0.33550000  1
  H  H30  1  0.90300000  0.76270000  0.60110000  1
  H  H31  1  0.74520000  0.87420000  0.67280000  1
  H  H32  1  0.68700000  0.80490000  0.73080000  1
  H  H33  1  0.90490000  0.67200000  0.62750000  1
  H  H34  1  0.81480000  0.64820000  0.65270000  1
  H  H35  1  0.89470000  0.66450000  0.69270000  1
  H  H36  1  0.59700000  0.39890000  0.23730000  1
  H  H37  1  0.75480000  0.32720000  0.12580000  1
  H  H38  1  0.81300000  0.26920000  0.19510000  1
  H  H39  1  0.59510000  0.37250000  0.32800000  1
  H  H40  1  0.68520000  0.34730000  0.35180000  1
  H  H41  1  0.60530000  0.30730000  0.33550000  1
  H  H42  1  0.09700000  0.76270000  0.39890000  1
  H  H43  1  0.25480000  0.87420000  0.32720000  1
  H  H44  1  0.31300000  0.80490000  0.26920000  1
  H  H45  1  0.09510000  0.67200000  0.37250000  1
  H  H46  1  0.18520000  0.64820000  0.34730000  1
  H  H47  1  0.10530000  0.66450000  0.30730000  1
  H  H48  1  0.59700000  0.60110000  0.76270000  1
  H  H49  1  0.75480000  0.67280000  0.87420000  1
  H  H50  1  0.81300000  0.73080000  0.80490000  1
  H  H51  1  0.59510000  0.62750000  0.67200000  1
  H  H52  1  0.68520000  0.65270000  0.64820000  1
  H  H53  1  0.60530000  0.69270000  0.66450000  1
  H  H54  1  0.09700000  0.23730000  0.60110000  1
  H  H55  1  0.25480000  0.12580000  0.67280000  1
  H  H56  1  0.31300000  0.19510000  0.73080000  1
  H  H57  1  0.09510000  0.32800000  0.62750000  1
  H  H58  1  0.18520000  0.35180000  0.65270000  1
  H  H59  1  0.10530000  0.33550000  0.69270000  1
  H  H60  1  0.59700000  0.60110000  0.23730000  1
  H  H61  1  0.75480000  0.67280000  0.12580000  1
  H  H62  1  0.81300000  0.73080000  0.19510000  1
  H  H63  1  0.59510000  0.62750000  0.32800000  1
  H  H64  1  0.68520000  0.65270000  0.35180000  1
  H  H65  1  0.60530000  0.69270000  0.33550000  1
  H  H66  1  0.09700000  0.76270000  0.60110000  1
  H  H67  1  0.25480000  0.87420000  0.67280000  1
  H  H68  1  0.31300000  0.80490000  0.73080000  1
  H  H69  1  0.09510000  0.67200000  0.62750000  1
  H  H70  1  0.18520000  0.64820000  0.65270000  1
  H  H71  1  0.10530000  0.66450000  0.69270000  1
  H  H72  1  0.59700000  0.39890000  0.76270000  1
  H  H73  1  0.75480000  0.32720000  0.87420000  1
  H  H74  1  0.81300000  0.26920000  0.80490000  1
  H  H75  1  0.59510000  0.37250000  0.67200000  1
  H  H76  1  0.68520000  0.34730000  0.64820000  1
  H  H77  1  0.60530000  0.30730000  0.66450000  1
  H  H78  1  0.09700000  0.23730000  0.39890000  1
  H  H79  1  0.25480000  0.12580000  0.32720000  1
  H  H80  1  0.31300000  0.19510000  0.26920000  1
  H  H81  1  0.09510000  0.32800000  0.37250000  1
  H  H82  1  0.18520000  0.35180000  0.34730000  1
  H  H83  1  0.10530000  0.33550000  0.30730000  1
  H  H84  1  0.40300000  0.60110000  0.76270000  1
  H  H85  1  0.24520000  0.67280000  0.87420000  1
  H  H86  1  0.18700000  0.73080000  0.80490000  1
  H  H87  1  0.40490000  0.62750000  0.67200000  1
  H  H88  1  0.31480000  0.65270000  0.64820000  1
  H  H89  1  0.39470000  0.69270000  0.66450000  1
  H  H90  1  0.90300000  0.23730000  0.60110000  1
  H  H91  1  0.74520000  0.12580000  0.67280000  1
  H  H92  1  0.68700000  0.19510000  0.73080000  1
  H  H93  1  0.90490000  0.32800000  0.62750000  1
  H  H94  1  0.81480000  0.35180000  0.65270000  1
  H  H95  1  0.89470000  0.33550000  0.69270000  1
  H  H96  1  0.40300000  0.39890000  0.23730000  1
  H  H97  1  0.24520000  0.32720000  0.12580000  1
  H  H98  1  0.18700000  0.26920000  0.19510000  1
  H  H99  1  0.40490000  0.37250000  0.32800000  1
  H  H100  1  0.31480000  0.34730000  0.35180000  1
  H  H101  1  0.39470000  0.30730000  0.33550000  1
  H  H102  1  0.90300000  0.76270000  0.39890000  1
  H  H103  1  0.74520000  0.87420000  0.32720000  1
  H  H104  1  0.68700000  0.80490000  0.26920000  1
  H  H105  1  0.90490000  0.67200000  0.37250000  1
  H  H106  1  0.81480000  0.64820000  0.34730000  1
  H  H107  1  0.89470000  0.66450000  0.30730000  1
  C  C108  1  0.36150000  0.40725000  0.86795000  1
  C  C109  1  0.32500000  0.36965000  0.82473000  1
  C  C110  1  0.35870000  0.37250000  0.77127000  1
  C  C111  1  0.26640000  0.29700000  0.74433000  1
  C  C112  1  0.32820000  0.33710000  0.73050000  1
  C  C113  1  0.26550000  0.33070000  0.83740000  1
  C  C114  1  0.23260000  0.29480000  0.79630000  1
  C  C115  1  0.36360000  0.34140000  0.67410000  1
  C  C116  1  0.86150000  0.13205000  0.40725000  1
  C  C117  1  0.82500000  0.17527000  0.36965000  1
  C  C118  1  0.85870000  0.22873000  0.37250000  1
  C  C119  1  0.76640000  0.25567000  0.29700000  1
  C  C120  1  0.82820000  0.26950000  0.33710000  1
  C  C121  1  0.76550000  0.16260000  0.33070000  1
  C  C122  1  0.73260000  0.20370000  0.29480000  1
  C  C123  1  0.86360000  0.32590000  0.34140000  1
  C  C124  1  0.36150000  0.59275000  0.13205000  1
  C  C125  1  0.32500000  0.63035000  0.17527000  1
  C  C126  1  0.35870000  0.62750000  0.22873000  1
  C  C127  1  0.26640000  0.70300000  0.25567000  1
  C  C128  1  0.32820000  0.66290000  0.26950000  1
  C  C129  1  0.26550000  0.66930000  0.16260000  1
  C  C130  1  0.23260000  0.70520000  0.20370000  1
  C  C131  1  0.36360000  0.65860000  0.32590000  1
  C  C132  1  0.86150000  0.86795000  0.59275000  1
  C  C133  1  0.82500000  0.82473000  0.63035000  1
  C  C134  1  0.85870000  0.77127000  0.62750000  1
  C  C135  1  0.76640000  0.74433000  0.70300000  1
  C  C136  1  0.82820000  0.73050000  0.66290000  1
  C  C137  1  0.76550000  0.83740000  0.66930000  1
  C  C138  1  0.73260000  0.79630000  0.70520000  1
  C  C139  1  0.86360000  0.67410000  0.65860000  1
  C  C140  1  0.63850000  0.40725000  0.13205000  1
  C  C141  1  0.67500000  0.36965000  0.17527000  1
  C  C142  1  0.64130000  0.37250000  0.22873000  1
  C  C143  1  0.73360000  0.29700000  0.25567000  1
  C  C144  1  0.67180000  0.33710000  0.26950000  1
  C  C145  1  0.73450000  0.33070000  0.16260000  1
  C  C146  1  0.76740000  0.29480000  0.20370000  1
  C  C147  1  0.63640000  0.34140000  0.32590000  1
  C  C148  1  0.13850000  0.86795000  0.40725000  1
  C  C149  1  0.17500000  0.82473000  0.36965000  1
  C  C150  1  0.14130000  0.77127000  0.37250000  1
  C  C151  1  0.23360000  0.74433000  0.29700000  1
  C  C152  1  0.17180000  0.73050000  0.33710000  1
  C  C153  1  0.23450000  0.83740000  0.33070000  1
  C  C154  1  0.26740000  0.79630000  0.29480000  1
  C  C155  1  0.13640000  0.67410000  0.34140000  1
  C  C156  1  0.63850000  0.59275000  0.86795000  1
  C  C157  1  0.67500000  0.63035000  0.82473000  1
  C  C158  1  0.64130000  0.62750000  0.77127000  1
  C  C159  1  0.73360000  0.70300000  0.74433000  1
  C  C160  1  0.67180000  0.66290000  0.73050000  1
  C  C161  1  0.73450000  0.66930000  0.83740000  1
  C  C162  1  0.76740000  0.70520000  0.79630000  1
  C  C163  1  0.63640000  0.65860000  0.67410000  1
  C  C164  1  0.13850000  0.13205000  0.59275000  1
  C  C165  1  0.17500000  0.17527000  0.63035000  1
  C  C166  1  0.14130000  0.22873000  0.62750000  1
  C  C167  1  0.23360000  0.25567000  0.70300000  1
  C  C168  1  0.17180000  0.26950000  0.66290000  1
  C  C169  1  0.23450000  0.16260000  0.66930000  1
  C  C170  1  0.26740000  0.20370000  0.70520000  1
  C  C171  1  0.13640000  0.32590000  0.65860000  1
  C  C172  1  0.63850000  0.59275000  0.13205000  1
  C  C173  1  0.67500000  0.63035000  0.17527000  1
  C  C174  1  0.64130000  0.62750000  0.22873000  1
  C  C175  1  0.73360000  0.70300000  0.25567000  1
  C  C176  1  0.67180000  0.66290000  0.26950000  1
  C  C177  1  0.73450000  0.66930000  0.16260000  1
  C  C178  1  0.76740000  0.70520000  0.20370000  1
  C  C179  1  0.63640000  0.65860000  0.32590000  1
  C  C180  1  0.13850000  0.86795000  0.59275000  1
  C  C181  1  0.17500000  0.82473000  0.63035000  1
  C  C182  1  0.14130000  0.77127000  0.62750000  1
  C  C183  1  0.23360000  0.74433000  0.70300000  1
  C  C184  1  0.17180000  0.73050000  0.66290000  1
  C  C185  1  0.23450000  0.83740000  0.66930000  1
  C  C186  1  0.26740000  0.79630000  0.70520000  1
  C  C187  1  0.13640000  0.67410000  0.65860000  1
  C  C188  1  0.63850000  0.40725000  0.86795000  1
  C  C189  1  0.67500000  0.36965000  0.82473000  1
  C  C190  1  0.64130000  0.37250000  0.77127000  1
  C  C191  1  0.73360000  0.29700000  0.74433000  1
  C  C192  1  0.67180000  0.33710000  0.73050000  1
  C  C193  1  0.73450000  0.33070000  0.83740000  1
  C  C194  1  0.76740000  0.29480000  0.79630000  1
  C  C195  1  0.63640000  0.34140000  0.67410000  1
  C  C196  1  0.13850000  0.13205000  0.40725000  1
  C  C197  1  0.17500000  0.17527000  0.36965000  1
  C  C198  1  0.14130000  0.22873000  0.37250000  1
  C  C199  1  0.23360000  0.25567000  0.29700000  1
  C  C200  1  0.17180000  0.26950000  0.33710000  1
  C  C201  1  0.23450000  0.16260000  0.33070000  1
  C  C202  1  0.26740000  0.20370000  0.29480000  1
  C  C203  1  0.13640000  0.32590000  0.34140000  1
  C  C204  1  0.36150000  0.59275000  0.86795000  1
  C  C205  1  0.32500000  0.63035000  0.82473000  1
  C  C206  1  0.35870000  0.62750000  0.77127000  1
  C  C207  1  0.26640000  0.70300000  0.74433000  1
  C  C208  1  0.32820000  0.66290000  0.73050000  1
  C  C209  1  0.26550000  0.66930000  0.83740000  1
  C  C210  1  0.23260000  0.70520000  0.79630000  1
  C  C211  1  0.36360000  0.65860000  0.67410000  1
  C  C212  1  0.86150000  0.13205000  0.59275000  1
  C  C213  1  0.82500000  0.17527000  0.63035000  1
  C  C214  1  0.85870000  0.22873000  0.62750000  1
  C  C215  1  0.76640000  0.25567000  0.70300000  1
  C  C216  1  0.82820000  0.26950000  0.66290000  1
  C  C217  1  0.76550000  0.16260000  0.66930000  1
  C  C218  1  0.73260000  0.20370000  0.70520000  1
  C  C219  1  0.86360000  0.32590000  0.65860000  1
  C  C220  1  0.36150000  0.40725000  0.13205000  1
  C  C221  1  0.32500000  0.36965000  0.17527000  1
  C  C222  1  0.35870000  0.37250000  0.22873000  1
  C  C223  1  0.26640000  0.29700000  0.25567000  1
  C  C224  1  0.32820000  0.33710000  0.26950000  1
  C  C225  1  0.26550000  0.33070000  0.16260000  1
  C  C226  1  0.23260000  0.29480000  0.20370000  1
  C  C227  1  0.36360000  0.34140000  0.32590000  1
  C  C228  1  0.86150000  0.86795000  0.40725000  1
  C  C229  1  0.82500000  0.82473000  0.36965000  1
  C  C230  1  0.85870000  0.77127000  0.37250000  1
  C  C231  1  0.76640000  0.74433000  0.29700000  1
  C  C232  1  0.82820000  0.73050000  0.33710000  1
  C  C233  1  0.76550000  0.83740000  0.33070000  1
  C  C234  1  0.73260000  0.79630000  0.29480000  1
  C  C235  1  0.86360000  0.67410000  0.34140000  1
  Br  Br236  1  0.50000000  0.50000000  0.70060000  1
  Br  Br237  1  0.34820000  0.50000000  0.67170000  1
  Br  Br238  1  1.00000000  0.29940000  0.50000000  1
  Br  Br239  1  0.84820000  0.32830000  0.50000000  1
  Br  Br240  1  0.50000000  0.50000000  0.29940000  1
  Br  Br241  1  0.34820000  0.50000000  0.32830000  1
  Br  Br242  1  0.00000000  0.70060000  0.50000000  1
  Br  Br243  1  0.84820000  0.67170000  0.50000000  1
  Br  Br244  1  0.65180000  0.50000000  0.32830000  1
  Br  Br245  1  0.15180000  0.67170000  0.50000000  1
  Br  Br246  1  0.65180000  0.50000000  0.67170000  1
  Br  Br247  1  0.15180000  0.32830000  0.50000000  1
  O  O248  1  0.41259000  0.44493000  0.85292000  1
  O  O249  1  0.33790000  0.39731000  0.91701000  1
  O  O250  1  0.76230000  0.56920000  0.00000000  1
  O  O251  1  0.61040000  0.66403000  0.00000000  1
  O  O252  1  0.61800000  0.50000000  0.95069000  1
  O  O253  1  0.50000000  0.57290000  0.95120000  1
  O  O254  1  0.91259000  0.14708000  0.44493000  1
  O  O255  1  0.83790000  0.08299000  0.39731000  1
  O  O256  1  0.26230000  1.00000000  0.56920000  1
  O  O257  1  0.11040000  0.00000000  0.66403000  1
  O  O258  1  0.11800000  0.04931000  0.50000000  1
  O  O259  1  1.00000000  0.04880000  0.57290000  1
  O  O260  1  0.41259000  0.55507000  0.14708000  1
  O  O261  1  0.33790000  0.60269000  0.08299000  1
  O  O262  1  0.76230000  0.43080000  0.00000000  1
  O  O263  1  0.61040000  0.33597000  0.00000000  1
  O  O264  1  0.61800000  0.50000000  0.04931000  1
  O  O265  1  0.50000000  0.42710000  0.04880000  1
  O  O266  1  0.91259000  0.85292000  0.55507000  1
  O  O267  1  0.83790000  0.91701000  0.60269000  1
  O  O268  1  0.26230000  0.00000000  0.43080000  1
  O  O269  1  0.11040000  1.00000000  0.33597000  1
  O  O270  1  0.11800000  0.95069000  0.50000000  1
  O  O271  1  0.00000000  0.95120000  0.42710000  1
  O  O272  1  0.58741000  0.44493000  0.14708000  1
  O  O273  1  0.66210000  0.39731000  0.08299000  1
  O  O274  1  0.23770000  0.56920000  0.00000000  1
  O  O275  1  0.38960000  0.66403000  0.00000000  1
  O  O276  1  0.38200000  0.50000000  0.04931000  1
  O  O277  1  0.50000000  0.57290000  0.04880000  1
  O  O278  1  0.08741000  0.85292000  0.44493000  1
  O  O279  1  0.16210000  0.91701000  0.39731000  1
  O  O280  1  0.73770000  1.00000000  0.56920000  1
  O  O281  1  0.88960000  0.00000000  0.66403000  1
  O  O282  1  0.88200000  0.95069000  0.50000000  1
  O  O283  1  1.00000000  0.95120000  0.57290000  1
  O  O284  1  0.58741000  0.55507000  0.85292000  1
  O  O285  1  0.66210000  0.60269000  0.91701000  1
  O  O286  1  0.23770000  0.43080000  0.00000000  1
  O  O287  1  0.38960000  0.33597000  0.00000000  1
  O  O288  1  0.38200000  0.50000000  0.95069000  1
  O  O289  1  0.50000000  0.42710000  0.95120000  1
  O  O290  1  0.08741000  0.14708000  0.55507000  1
  O  O291  1  0.16210000  0.08299000  0.60269000  1
  O  O292  1  0.73770000  0.00000000  0.43080000  1
  O  O293  1  0.88960000  1.00000000  0.33597000  1
  O  O294  1  0.88200000  0.04931000  0.50000000  1
  O  O295  1  0.00000000  0.04880000  0.42710000  1
  O  O296  1  0.58741000  0.55507000  0.14708000  1
  O  O297  1  0.66210000  0.60269000  0.08299000  1
  O  O298  1  0.08741000  0.85292000  0.55507000  1
  O  O299  1  0.16210000  0.91701000  0.60269000  1
  O  O300  1  0.58741000  0.44493000  0.85292000  1
  O  O301  1  0.66210000  0.39731000  0.91701000  1
  O  O302  1  0.08741000  0.14708000  0.44493000  1
  O  O303  1  0.16210000  0.08299000  0.39731000  1
  O  O304  1  0.41259000  0.55507000  0.85292000  1
  O  O305  1  0.33790000  0.60269000  0.91701000  1
  O  O306  1  0.91259000  0.14708000  0.55507000  1
  O  O307  1  0.83790000  0.08299000  0.60269000  1
  O  O308  1  0.41259000  0.44493000  0.14708000  1
  O  O309  1  0.33790000  0.39731000  0.08299000  1
  O  O310  1  0.91259000  0.85292000  0.44493000  1
  O  O311  1  0.83790000  0.91701000  0.39731000  1
