# generated using pymatgen
data_Zr3H30(C29O7)2
_symmetry_space_group_name_H-M   'P 1'
_cell_length_a   20.28030252
_cell_length_b   20.28030252
_cell_length_c   20.82400000
_cell_angle_alpha   90.00000000
_cell_angle_beta   90.00000000
_cell_angle_gamma   110.36382779
_symmetry_Int_Tables_number   1
_chemical_formula_structural   Zr3H30(C29O7)2
_chemical_formula_sum   'Zr6 H60 C116 O28'
_cell_volume   8029.43808489
_cell_formula_units_Z   2
loop_
 _symmetry_equiv_pos_site_id
 _symmetry_equiv_pos_as_xyz
  1  'x, y, z'
loop_
 _atom_site_type_symbol
 _atom_site_label
 _atom_site_symmetry_multiplicity
 _atom_site_fract_x
 _atom_site_fract_y
 _atom_site_fract_z
 _atom_site_occupancy
  C  C0  1  0.19280000  0.00040000  0.60470000  1
  C  C1  1  0.25690000  0.00030000  0.63980000  1
  C  C2  1  0.29530000  0.96050000  0.61940000  1
  C  C3  1  0.27930000  0.04010000  0.69330000  1
  C  C4  1  0.35440000  0.95920000  0.65240000  1
  C  C5  1  0.33910000  0.04270000  0.72640000  1
  C  C6  1  0.37550000  0.99810000  0.70650000  1
  C  C7  1  0.44090000  0.00110000  0.74260000  1
  C  C8  1  0.44160000  0.00140000  0.80890000  1
  C  C9  1  0.49620000  0.56580000  0.50000000  1
  C  C10  1  0.48740000  0.63060000  0.50000000  1
  C  C11  1  0.42300000  0.63920000  0.50000000  1
  C  C12  1  0.71340000  0.71340000  0.55560000  1
  C  C13  1  0.65430000  0.65430000  0.55440000  1
  C  C14  1  0.80840000  0.80840000  0.50000000  1
  C  C15  1  0.74650000  0.74650000  0.50000000  1
  C  C16  1  0.62260000  0.62260000  0.50000000  1
  C  C17  1  0.56430000  0.56430000  0.50000000  1
  C  C18  1  0.50000000  0.00000000  0.70980000  1
  C  C19  1  0.50000000  0.00000000  0.84190000  1
  C  C20  1  0.50000000  0.00000000  0.91180000  1
  C  C21  1  0.50000000  0.00000000  0.96590000  1
  C  C22  1  0.80720000  0.99960000  0.60470000  1
  C  C23  1  0.74310000  0.99970000  0.63980000  1
  C  C24  1  0.70470000  0.03950000  0.61940000  1
  C  C25  1  0.72070000  0.95990000  0.69330000  1
  C  C26  1  0.64560000  0.04080000  0.65240000  1
  C  C27  1  0.66090000  0.95730000  0.72640000  1
  C  C28  1  0.62450000  0.00190000  0.70650000  1
  C  C29  1  0.55910000  0.99890000  0.74260000  1
  C  C30  1  0.55840000  0.99860000  0.80890000  1
  C  C31  1  0.50380000  0.43420000  0.50000000  1
  C  C32  1  0.51260000  0.36940000  0.50000000  1
  C  C33  1  0.57700000  0.36080000  0.50000000  1
  C  C34  1  0.28660000  0.28660000  0.55560000  1
  C  C35  1  0.34570000  0.34570000  0.55440000  1
  C  C36  1  0.19160000  0.19160000  0.50000000  1
  C  C37  1  0.25350000  0.25350000  0.50000000  1
  C  C38  1  0.37740000  0.37740000  0.50000000  1
  C  C39  1  0.43570000  0.43570000  0.50000000  1
  C  C40  1  0.00040000  0.19280000  0.39530000  1
  C  C41  1  0.00030000  0.25690000  0.36020000  1
  C  C42  1  0.96050000  0.29530000  0.38060000  1
  C  C43  1  0.04010000  0.27930000  0.30670000  1
  C  C44  1  0.95920000  0.35440000  0.34760000  1
  C  C45  1  0.04270000  0.33910000  0.27360000  1
  C  C46  1  0.99810000  0.37550000  0.29350000  1
  C  C47  1  0.00110000  0.44090000  0.25740000  1
  C  C48  1  0.00140000  0.44160000  0.19110000  1
  C  C49  1  0.56580000  0.49620000  0.50000000  1
  C  C50  1  0.63060000  0.48740000  0.50000000  1
  C  C51  1  0.63920000  0.42300000  0.50000000  1
  C  C52  1  0.71340000  0.71340000  0.44440000  1
  C  C53  1  0.65430000  0.65430000  0.44560000  1
  C  C54  1  0.00000000  0.50000000  0.29020000  1
  C  C55  1  0.00000000  0.50000000  0.15810000  1
  C  C56  1  0.00000000  0.50000000  0.08820000  1
  C  C57  1  0.00000000  0.50000000  0.03410000  1
  C  C58  1  0.99960000  0.80720000  0.39530000  1
  C  C59  1  0.99970000  0.74310000  0.36020000  1
  C  C60  1  0.03950000  0.70470000  0.38060000  1
  C  C61  1  0.95990000  0.72070000  0.30670000  1
  C  C62  1  0.04080000  0.64560000  0.34760000  1
  C  C63  1  0.95730000  0.66090000  0.27360000  1
  C  C64  1  0.00190000  0.62450000  0.29350000  1
  C  C65  1  0.99890000  0.55910000  0.25740000  1
  C  C66  1  0.99860000  0.55840000  0.19110000  1
  C  C67  1  0.43420000  0.50380000  0.50000000  1
  C  C68  1  0.36940000  0.51260000  0.50000000  1
  C  C69  1  0.36080000  0.57700000  0.50000000  1
  C  C70  1  0.28660000  0.28660000  0.44440000  1
  C  C71  1  0.34570000  0.34570000  0.44560000  1
  C  C72  1  0.80720000  0.99960000  0.39530000  1
  C  C73  1  0.74310000  0.99970000  0.36020000  1
  C  C74  1  0.70470000  0.03950000  0.38060000  1
  C  C75  1  0.72070000  0.95990000  0.30670000  1
  C  C76  1  0.64560000  0.04080000  0.34760000  1
  C  C77  1  0.66090000  0.95730000  0.27360000  1
  C  C78  1  0.62450000  0.00190000  0.29350000  1
  C  C79  1  0.55910000  0.99890000  0.25740000  1
  C  C80  1  0.55840000  0.99860000  0.19110000  1
  C  C81  1  0.50000000  0.00000000  0.29020000  1
  C  C82  1  0.50000000  0.00000000  0.15810000  1
  C  C83  1  0.50000000  0.00000000  0.08820000  1
  C  C84  1  0.50000000  0.00000000  0.03410000  1
  C  C85  1  0.19280000  0.00040000  0.39530000  1
  C  C86  1  0.25690000  0.00030000  0.36020000  1
  C  C87  1  0.29530000  0.96050000  0.38060000  1
  C  C88  1  0.27930000  0.04010000  0.30670000  1
  C  C89  1  0.35440000  0.95920000  0.34760000  1
  C  C90  1  0.33910000  0.04270000  0.27360000  1
  C  C91  1  0.37550000  0.99810000  0.29350000  1
  C  C92  1  0.44090000  0.00110000  0.25740000  1
  C  C93  1  0.44160000  0.00140000  0.19110000  1
  C  C94  1  0.99960000  0.80720000  0.60470000  1
  C  C95  1  0.99970000  0.74310000  0.63980000  1
  C  C96  1  0.03950000  0.70470000  0.61940000  1
  C  C97  1  0.95990000  0.72070000  0.69330000  1
  C  C98  1  0.04080000  0.64560000  0.65240000  1
  C  C99  1  0.95730000  0.66090000  0.72640000  1
  C  C100  1  0.00190000  0.62450000  0.70650000  1
  C  C101  1  0.99890000  0.55910000  0.74260000  1
  C  C102  1  0.99860000  0.55840000  0.80890000  1
  C  C103  1  0.00000000  0.50000000  0.70980000  1
  C  C104  1  0.00000000  0.50000000  0.84190000  1
  C  C105  1  0.00000000  0.50000000  0.91180000  1
  C  C106  1  0.00000000  0.50000000  0.96590000  1
  C  C107  1  0.00040000  0.19280000  0.60470000  1
  C  C108  1  0.00030000  0.25690000  0.63980000  1
  C  C109  1  0.96050000  0.29530000  0.61940000  1
  C  C110  1  0.04010000  0.27930000  0.69330000  1
  C  C111  1  0.95920000  0.35440000  0.65240000  1
  C  C112  1  0.04270000  0.33910000  0.72640000  1
  C  C113  1  0.99810000  0.37550000  0.70650000  1
  C  C114  1  0.00110000  0.44090000  0.74260000  1
  C  C115  1  0.00140000  0.44160000  0.80890000  1
  H  H116  1  0.28130000  0.93350000  0.58240000  1
  H  H117  1  0.25320000  0.06660000  0.70820000  1
  H  H118  1  0.37940000  0.93160000  0.63740000  1
  H  H119  1  0.35490000  0.07310000  0.76100000  1
  H  H120  1  0.40240000  0.00260000  0.83140000  1
  H  H121  1  0.52750000  0.67090000  0.50000000  1
  H  H122  1  0.41970000  0.68390000  0.50000000  1
  H  H123  1  0.73210000  0.73210000  0.59510000  1
  H  H124  1  0.63480000  0.63480000  0.59340000  1
  H  H125  1  0.50000000  0.00000000  0.66510000  1
  H  H126  1  0.71870000  0.06650000  0.58240000  1
  H  H127  1  0.74680000  0.93340000  0.70820000  1
  H  H128  1  0.62060000  0.06840000  0.63740000  1
  H  H129  1  0.64510000  0.92690000  0.76100000  1
  H  H130  1  0.59760000  0.99740000  0.83140000  1
  H  H131  1  0.47250000  0.32910000  0.50000000  1
  H  H132  1  0.58030000  0.31610000  0.50000000  1
  H  H133  1  0.26790000  0.26790000  0.59510000  1
  H  H134  1  0.36520000  0.36520000  0.59340000  1
  H  H135  1  0.93350000  0.28130000  0.41760000  1
  H  H136  1  0.06660000  0.25320000  0.29180000  1
  H  H137  1  0.93160000  0.37940000  0.36260000  1
  H  H138  1  0.07310000  0.35490000  0.23900000  1
  H  H139  1  0.00260000  0.40240000  0.16860000  1
  H  H140  1  0.67090000  0.52750000  0.50000000  1
  H  H141  1  0.68390000  0.41970000  0.50000000  1
  H  H142  1  0.73210000  0.73210000  0.40490000  1
  H  H143  1  0.63480000  0.63480000  0.40660000  1
  H  H144  1  0.00000000  0.50000000  0.33490000  1
  H  H145  1  0.06650000  0.71870000  0.41760000  1
  H  H146  1  0.93340000  0.74680000  0.29180000  1
  H  H147  1  0.06840000  0.62060000  0.36260000  1
  H  H148  1  0.92690000  0.64510000  0.23900000  1
  H  H149  1  0.99740000  0.59760000  0.16860000  1
  H  H150  1  0.32910000  0.47250000  0.50000000  1
  H  H151  1  0.31610000  0.58030000  0.50000000  1
  H  H152  1  0.26790000  0.26790000  0.40490000  1
  H  H153  1  0.36520000  0.36520000  0.40660000  1
  H  H154  1  0.71870000  0.06650000  0.41760000  1
  H  H155  1  0.74680000  0.93340000  0.29180000  1
  H  H156  1  0.62060000  0.06840000  0.36260000  1
  H  H157  1  0.64510000  0.92690000  0.23900000  1
  H  H158  1  0.59760000  0.99740000  0.16860000  1
  H  H159  1  0.50000000  0.00000000  0.33490000  1
  H  H160  1  0.28130000  0.93350000  0.41760000  1
  H  H161  1  0.25320000  0.06660000  0.29180000  1
  H  H162  1  0.37940000  0.93160000  0.36260000  1
  H  H163  1  0.35490000  0.07310000  0.23900000  1
  H  H164  1  0.40240000  0.00260000  0.16860000  1
  H  H165  1  0.06650000  0.71870000  0.58240000  1
  H  H166  1  0.93340000  0.74680000  0.70820000  1
  H  H167  1  0.06840000  0.62060000  0.63740000  1
  H  H168  1  0.92690000  0.64510000  0.76100000  1
  H  H169  1  0.99740000  0.59760000  0.83140000  1
  H  H170  1  0.00000000  0.50000000  0.66510000  1
  H  H171  1  0.93350000  0.28130000  0.58240000  1
  H  H172  1  0.06660000  0.25320000  0.70820000  1
  H  H173  1  0.93160000  0.37940000  0.63740000  1
  H  H174  1  0.07310000  0.35490000  0.76100000  1
  H  H175  1  0.00260000  0.40240000  0.83140000  1
  O  O176  1  0.16654000  0.95086000  0.56400000  1
  O  O177  1  0.16829000  0.04771000  0.61900000  1
  O  O178  1  0.03650000  0.96350000  0.41550000  1
  O  O179  1  0.96160000  0.88820000  0.50000000  1
  O  O180  1  0.83040000  0.83040000  0.43260000  1
  O  O181  1  0.83346000  0.04914000  0.56400000  1
  O  O182  1  0.83171000  0.95229000  0.61900000  1
  O  O183  1  0.96350000  0.03650000  0.41550000  1
  O  O184  1  0.03840000  0.11180000  0.50000000  1
  O  O185  1  0.16960000  0.16960000  0.43260000  1
  O  O186  1  0.95086000  0.16654000  0.43600000  1
  O  O187  1  0.04771000  0.16829000  0.38100000  1
  O  O188  1  0.96350000  0.03650000  0.58450000  1
  O  O189  1  0.88820000  0.96160000  0.50000000  1
  O  O190  1  0.83040000  0.83040000  0.56740000  1
  O  O191  1  0.04914000  0.83346000  0.43600000  1
  O  O192  1  0.95229000  0.83171000  0.38100000  1
  O  O193  1  0.03650000  0.96350000  0.58450000  1
  O  O194  1  0.11180000  0.03840000  0.50000000  1
  O  O195  1  0.16960000  0.16960000  0.56740000  1
  O  O196  1  0.83346000  0.04914000  0.43600000  1
  O  O197  1  0.83171000  0.95229000  0.38100000  1
  O  O198  1  0.16654000  0.95086000  0.43600000  1
  O  O199  1  0.16829000  0.04771000  0.38100000  1
  O  O200  1  0.04914000  0.83346000  0.56400000  1
  O  O201  1  0.95229000  0.83171000  0.61900000  1
  O  O202  1  0.95086000  0.16654000  0.56400000  1
  O  O203  1  0.04771000  0.16829000  0.61900000  1
  Zr  Zr204  1  0.07412000  0.92588000  0.50000000  1
  Zr  Zr205  1  0.92397000  0.92397000  0.41558000  1
  Zr  Zr206  1  0.92588000  0.07412000  0.50000000  1
  Zr  Zr207  1  0.07603000  0.07603000  0.41558000  1
  Zr  Zr208  1  0.92397000  0.92397000  0.58442000  1
  Zr  Zr209  1  0.07603000  0.07603000  0.58442000  1
