# generated using pymatgen
data_Zr3H30C55O16
_symmetry_space_group_name_H-M   'P 1'
_cell_length_a   20.17226848
_cell_length_b   20.17226848
_cell_length_c   20.65180000
_cell_angle_alpha   90.00000000
_cell_angle_beta   90.00000000
_cell_angle_gamma   109.97321474
_symmetry_Int_Tables_number   1
_chemical_formula_structural   Zr3H30C55O16
_chemical_formula_sum   'Zr6 H60 C110 O32'
_cell_volume   7898.18040141
_cell_formula_units_Z   2
loop_
 _symmetry_equiv_pos_site_id
 _symmetry_equiv_pos_as_xyz
  1  'x, y, z'
loop_
 _atom_site_type_symbol
 _atom_site_label
 _atom_site_symmetry_multiplicity
 _atom_site_fract_x
 _atom_site_fract_y
 _atom_site_fract_z
 _atom_site_occupancy
  C  C0  1  0.80800000  0.00040000  0.39510000  1
  C  C1  1  0.74380000  0.99840000  0.35830000  1
  C  C2  1  0.72020000  0.95660000  0.30660000  1
  C  C3  1  0.66050000  0.95330000  0.27470000  1
  C  C4  1  0.62470000  0.00090000  0.29440000  1
  C  C5  1  0.64860000  0.04420000  0.34670000  1
  C  C6  1  0.70670000  0.04270000  0.37960000  1
  C  C7  1  0.55940000  0.00120000  0.25730000  1
  C  C8  1  0.55700000  0.99740000  0.19290000  1
  C  C9  1  0.19200000  0.99960000  0.39510000  1
  C  C10  1  0.25620000  0.00160000  0.35830000  1
  C  C11  1  0.27980000  0.04340000  0.30660000  1
  C  C12  1  0.33950000  0.04670000  0.27470000  1
  C  C13  1  0.37530000  0.99910000  0.29440000  1
  C  C14  1  0.35140000  0.95580000  0.34670000  1
  C  C15  1  0.29330000  0.95730000  0.37960000  1
  C  C16  1  0.44060000  0.99880000  0.25730000  1
  C  C17  1  0.44300000  0.00260000  0.19290000  1
  C  C18  1  0.99960000  0.19200000  0.60490000  1
  C  C19  1  0.00160000  0.25620000  0.64170000  1
  C  C20  1  0.04340000  0.27980000  0.69340000  1
  C  C21  1  0.04670000  0.33950000  0.72530000  1
  C  C22  1  0.99910000  0.37530000  0.70560000  1
  C  C23  1  0.95580000  0.35140000  0.65330000  1
  C  C24  1  0.95730000  0.29330000  0.62040000  1
  C  C25  1  0.99880000  0.44060000  0.74270000  1
  C  C26  1  0.00260000  0.44300000  0.80710000  1
  C  C27  1  0.00040000  0.80800000  0.60490000  1
  C  C28  1  0.99840000  0.74380000  0.64170000  1
  C  C29  1  0.95660000  0.72020000  0.69340000  1
  C  C30  1  0.95330000  0.66050000  0.72530000  1
  C  C31  1  0.00090000  0.62470000  0.70560000  1
  C  C32  1  0.04420000  0.64860000  0.65330000  1
  C  C33  1  0.04270000  0.70670000  0.62040000  1
  C  C34  1  0.00120000  0.55940000  0.74270000  1
  C  C35  1  0.99740000  0.55700000  0.80710000  1
  C  C36  1  0.19200000  0.99960000  0.60490000  1
  C  C37  1  0.25620000  0.00160000  0.64170000  1
  C  C38  1  0.27980000  0.04340000  0.69340000  1
  C  C39  1  0.33950000  0.04670000  0.72530000  1
  C  C40  1  0.37530000  0.99910000  0.70560000  1
  C  C41  1  0.35140000  0.95580000  0.65330000  1
  C  C42  1  0.29330000  0.95730000  0.62040000  1
  C  C43  1  0.44060000  0.99880000  0.74270000  1
  C  C44  1  0.44300000  0.00260000  0.80710000  1
  C  C45  1  0.80800000  0.00040000  0.60490000  1
  C  C46  1  0.74380000  0.99840000  0.64170000  1
  C  C47  1  0.72020000  0.95660000  0.69340000  1
  C  C48  1  0.66050000  0.95330000  0.72530000  1
  C  C49  1  0.62470000  0.00090000  0.70560000  1
  C  C50  1  0.64860000  0.04420000  0.65330000  1
  C  C51  1  0.70670000  0.04270000  0.62040000  1
  C  C52  1  0.55940000  0.00120000  0.74270000  1
  C  C53  1  0.55700000  0.99740000  0.80710000  1
  C  C54  1  0.00040000  0.80800000  0.39510000  1
  C  C55  1  0.99840000  0.74380000  0.35830000  1
  C  C56  1  0.95660000  0.72020000  0.30660000  1
  C  C57  1  0.95330000  0.66050000  0.27470000  1
  C  C58  1  0.00090000  0.62470000  0.29440000  1
  C  C59  1  0.04420000  0.64860000  0.34670000  1
  C  C60  1  0.04270000  0.70670000  0.37960000  1
  C  C61  1  0.00120000  0.55940000  0.25730000  1
  C  C62  1  0.99740000  0.55700000  0.19290000  1
  C  C63  1  0.99960000  0.19200000  0.39510000  1
  C  C64  1  0.00160000  0.25620000  0.35830000  1
  C  C65  1  0.04340000  0.27980000  0.30660000  1
  C  C66  1  0.04670000  0.33950000  0.27470000  1
  C  C67  1  0.99910000  0.37530000  0.29440000  1
  C  C68  1  0.95580000  0.35140000  0.34670000  1
  C  C69  1  0.95730000  0.29330000  0.37960000  1
  C  C70  1  0.99880000  0.44060000  0.25730000  1
  C  C71  1  0.00260000  0.44300000  0.19290000  1
  C  C72  1  0.28650000  0.28650000  0.55760000  1
  C  C73  1  0.34510000  0.34510000  0.55730000  1
  C  C74  1  0.71350000  0.71350000  0.55760000  1
  C  C75  1  0.65490000  0.65490000  0.55730000  1
  C  C76  1  0.71350000  0.71350000  0.44240000  1
  C  C77  1  0.65490000  0.65490000  0.44270000  1
  C  C78  1  0.28650000  0.28650000  0.44240000  1
  C  C79  1  0.34510000  0.34510000  0.44270000  1
  C  C80  1  0.50650000  0.44050000  0.50000000  1
  C  C81  1  0.53260000  0.37940000  0.50000000  1
  C  C82  1  0.49350000  0.55950000  0.50000000  1
  C  C83  1  0.46740000  0.62060000  0.50000000  1
  C  C84  1  0.55950000  0.49350000  0.50000000  1
  C  C85  1  0.44050000  0.50650000  0.50000000  1
  C  C86  1  0.50000000  0.00000000  0.29000000  1
  C  C87  1  0.50000000  0.00000000  0.15850000  1
  C  C88  1  0.50000000  0.00000000  0.09030000  1
  C  C89  1  0.50000000  0.00000000  0.03300000  1
  C  C90  1  0.00000000  0.50000000  0.71000000  1
  C  C91  1  0.00000000  0.50000000  0.84150000  1
  C  C92  1  0.00000000  0.50000000  0.90970000  1
  C  C93  1  0.00000000  0.50000000  0.96700000  1
  C  C94  1  0.50000000  0.00000000  0.71000000  1
  C  C95  1  0.50000000  0.00000000  0.84150000  1
  C  C96  1  0.50000000  0.00000000  0.90970000  1
  C  C97  1  0.50000000  0.00000000  0.96700000  1
  C  C98  1  0.00000000  0.50000000  0.29000000  1
  C  C99  1  0.00000000  0.50000000  0.15850000  1
  C  C100  1  0.00000000  0.50000000  0.09030000  1
  C  C101  1  0.00000000  0.50000000  0.03300000  1
  C  C102  1  0.19110000  0.19110000  0.50000000  1
  C  C103  1  0.25730000  0.25730000  0.50000000  1
  C  C104  1  0.37450000  0.37450000  0.50000000  1
  C  C105  1  0.44020000  0.44020000  0.50000000  1
  C  C106  1  0.80890000  0.80890000  0.50000000  1
  C  C107  1  0.74270000  0.74270000  0.50000000  1
  C  C108  1  0.62550000  0.62550000  0.50000000  1
  C  C109  1  0.55980000  0.55980000  0.50000000  1
  H  H110  1  0.74580000  0.92880000  0.29220000  1
  H  H111  1  0.64300000  0.92140000  0.24110000  1
  H  H112  1  0.62530000  0.07450000  0.35980000  1
  H  H113  1  0.72200000  0.07100000  0.41600000  1
  H  H114  1  0.59530000  0.99290000  0.17060000  1
  H  H115  1  0.51540000  0.35120000  0.53790000  1
  H  H116  1  0.25420000  0.07120000  0.29220000  1
  H  H117  1  0.35700000  0.07860000  0.24110000  1
  H  H118  1  0.37470000  0.92550000  0.35980000  1
  H  H119  1  0.27800000  0.92900000  0.41600000  1
  H  H120  1  0.40470000  0.00710000  0.17060000  1
  H  H121  1  0.48460000  0.64880000  0.53790000  1
  H  H122  1  0.07120000  0.25420000  0.70780000  1
  H  H123  1  0.07860000  0.35700000  0.75890000  1
  H  H124  1  0.92550000  0.37470000  0.64020000  1
  H  H125  1  0.92900000  0.27800000  0.58400000  1
  H  H126  1  0.00710000  0.40470000  0.82940000  1
  H  H127  1  0.92880000  0.74580000  0.70780000  1
  H  H128  1  0.92140000  0.64300000  0.75890000  1
  H  H129  1  0.07450000  0.62530000  0.64020000  1
  H  H130  1  0.07100000  0.72200000  0.58400000  1
  H  H131  1  0.99290000  0.59530000  0.82940000  1
  H  H132  1  0.25420000  0.07120000  0.70780000  1
  H  H133  1  0.35700000  0.07860000  0.75890000  1
  H  H134  1  0.37470000  0.92550000  0.64020000  1
  H  H135  1  0.27800000  0.92900000  0.58400000  1
  H  H136  1  0.40470000  0.00710000  0.82940000  1
  H  H137  1  0.48460000  0.64880000  0.46210000  1
  H  H138  1  0.74580000  0.92880000  0.70780000  1
  H  H139  1  0.64300000  0.92140000  0.75890000  1
  H  H140  1  0.62530000  0.07450000  0.64020000  1
  H  H141  1  0.72200000  0.07100000  0.58400000  1
  H  H142  1  0.59530000  0.99290000  0.82940000  1
  H  H143  1  0.51540000  0.35120000  0.46210000  1
  H  H144  1  0.92880000  0.74580000  0.29220000  1
  H  H145  1  0.92140000  0.64300000  0.24110000  1
  H  H146  1  0.07450000  0.62530000  0.35980000  1
  H  H147  1  0.07100000  0.72200000  0.41600000  1
  H  H148  1  0.99290000  0.59530000  0.17060000  1
  H  H149  1  0.07120000  0.25420000  0.29220000  1
  H  H150  1  0.07860000  0.35700000  0.24110000  1
  H  H151  1  0.92550000  0.37470000  0.35980000  1
  H  H152  1  0.92900000  0.27800000  0.41600000  1
  H  H153  1  0.00710000  0.40470000  0.17060000  1
  H  H154  1  0.26640000  0.26640000  0.59660000  1
  H  H155  1  0.36530000  0.36530000  0.59620000  1
  H  H156  1  0.73360000  0.73360000  0.59660000  1
  H  H157  1  0.63470000  0.63470000  0.59620000  1
  H  H158  1  0.73360000  0.73360000  0.40340000  1
  H  H159  1  0.63470000  0.63470000  0.40380000  1
  H  H160  1  0.26640000  0.26640000  0.40340000  1
  H  H161  1  0.36530000  0.36530000  0.40380000  1
  H  H162  1  0.58330000  0.39610000  0.50000000  1
  H  H163  1  0.41670000  0.60390000  0.50000000  1
  H  H164  1  0.50000000  0.00000000  0.33510000  1
  H  H165  1  0.00000000  0.50000000  0.66490000  1
  H  H166  1  0.50000000  0.00000000  0.66490000  1
  H  H167  1  0.00000000  0.50000000  0.33510000  1
  H  H168  1  0.61144000  0.48278000  0.50000000  1
  H  H169  1  0.38856000  0.51722000  0.50000000  1
  O  O170  1  0.83429000  0.04951000  0.43420000  1
  O  O171  1  0.83183000  0.95137000  0.38110000  1
  O  O172  1  0.16571000  0.95049000  0.43420000  1
  O  O173  1  0.16817000  0.04863000  0.38110000  1
  O  O174  1  0.95049000  0.16571000  0.56580000  1
  O  O175  1  0.04863000  0.16817000  0.61890000  1
  O  O176  1  0.04951000  0.83429000  0.56580000  1
  O  O177  1  0.95137000  0.83183000  0.61890000  1
  O  O178  1  0.16571000  0.95049000  0.56580000  1
  O  O179  1  0.16817000  0.04863000  0.61890000  1
  O  O180  1  0.83429000  0.04951000  0.56580000  1
  O  O181  1  0.83183000  0.95137000  0.61890000  1
  O  O182  1  0.04951000  0.83429000  0.43420000  1
  O  O183  1  0.95137000  0.83183000  0.38110000  1
  O  O184  1  0.95049000  0.16571000  0.43420000  1
  O  O185  1  0.04863000  0.16817000  0.38110000  1
  O  O186  1  0.16760000  0.16760000  0.55610000  1
  O  O187  1  0.06440000  0.06440000  0.69090000  1
  O  O188  1  0.83240000  0.83240000  0.55610000  1
  O  O189  1  0.93560000  0.93560000  0.69090000  1
  O  O190  1  0.83240000  0.83240000  0.44390000  1
  O  O191  1  0.93560000  0.93560000  0.30910000  1
  O  O192  1  0.16760000  0.16760000  0.44390000  1
  O  O193  1  0.06440000  0.06440000  0.30910000  1
  O  O194  1  0.96370000  0.03630000  0.58540000  1
  O  O195  1  0.03630000  0.96370000  0.58540000  1
  O  O196  1  0.96370000  0.03630000  0.41460000  1
  O  O197  1  0.03630000  0.96370000  0.41460000  1
  O  O198  1  0.03690000  0.11090000  0.50000000  1
  O  O199  1  0.96310000  0.88910000  0.50000000  1
  O  O200  1  0.88910000  0.96310000  0.50000000  1
  O  O201  1  0.11090000  0.03690000  0.50000000  1
  Zr  Zr202  1  0.07584000  0.07584000  0.58464000  1
  Zr  Zr203  1  0.92416000  0.92416000  0.58464000  1
  Zr  Zr204  1  0.92416000  0.92416000  0.41536000  1
  Zr  Zr205  1  0.07584000  0.07584000  0.41536000  1
  Zr  Zr206  1  0.92560000  0.07440000  0.50000000  1
  Zr  Zr207  1  0.07440000  0.92560000  0.50000000  1
