# generated using pymatgen
data_Zr3H22(C11O3)4
_symmetry_space_group_name_H-M   'P 1'
_cell_length_a   19.99058316
_cell_length_b   19.99058316
_cell_length_c   21.07530000
_cell_angle_alpha   90.00000000
_cell_angle_beta   90.00000000
_cell_angle_gamma   119.24757993
_symmetry_Int_Tables_number   1
_chemical_formula_structural   Zr3H22(C11O3)4
_chemical_formula_sum   'Zr6 H44 C88 O24'
_cell_volume   7348.49516313
_cell_formula_units_Z   2
loop_
 _symmetry_equiv_pos_site_id
 _symmetry_equiv_pos_as_xyz
  1  'x, y, z'
loop_
 _atom_site_type_symbol
 _atom_site_label
 _atom_site_symmetry_multiplicity
 _atom_site_fract_x
 _atom_site_fract_y
 _atom_site_fract_z
 _atom_site_occupancy
  C  C0  1  0.48801000  0.30079000  0.60530000  1
  C  C1  1  0.48725000  0.23755000  0.64150000  1
  C  C2  1  0.53418000  0.20862000  0.62250000  1
  C  C3  1  0.53330000  0.14850000  0.65560000  1
  C  C4  1  0.49101000  0.12059000  0.71030000  1
  C  C5  1  0.44398000  0.14922000  0.72840000  1
  C  C6  1  0.44309000  0.20731000  0.69500000  1
  C  C7  1  0.49381000  0.05679000  0.74600000  1
  C  C8  1  0.49570000  0.05890000  0.81200000  1
  C  C9  1  0.50000000  1.00000000  0.71390000  1
  C  C10  1  0.50000000  1.00000000  0.84420000  1
  C  C11  1  0.50000000  1.00000000  0.91100000  1
  C  C12  1  0.50000000  1.00000000  0.96780000  1
  C  C13  1  0.51199000  0.69921000  0.60530000  1
  C  C14  1  0.51275000  0.76245000  0.64150000  1
  C  C15  1  0.46582000  0.79138000  0.62250000  1
  C  C16  1  0.46670000  0.85150000  0.65560000  1
  C  C17  1  0.50899000  0.87941000  0.71030000  1
  C  C18  1  0.55602000  0.85078000  0.72840000  1
  C  C19  1  0.55691000  0.79269000  0.69500000  1
  C  C20  1  0.50619000  0.94321000  0.74600000  1
  C  C21  1  0.50430000  0.94110000  0.81200000  1
  C  C22  1  0.30079000  0.48801000  0.39470000  1
  C  C23  1  0.23755000  0.48725000  0.35850000  1
  C  C24  1  0.20862000  0.53418000  0.37750000  1
  C  C25  1  0.14850000  0.53330000  0.34440000  1
  C  C26  1  0.12059000  0.49101000  0.28970000  1
  C  C27  1  0.14922000  0.44398000  0.27160000  1
  C  C28  1  0.20731000  0.44309000  0.30500000  1
  C  C29  1  0.05679000  0.49381000  0.25400000  1
  C  C30  1  0.05890000  0.49570000  0.18800000  1
  C  C31  1  0.00000000  0.50000000  0.28610000  1
  C  C32  1  0.00000000  0.50000000  0.15580000  1
  C  C33  1  0.00000000  0.50000000  0.08900000  1
  C  C34  1  0.00000000  0.50000000  0.03220000  1
  C  C35  1  0.69921000  0.51199000  0.39470000  1
  C  C36  1  0.76245000  0.51275000  0.35850000  1
  C  C37  1  0.79138000  0.46582000  0.37750000  1
  C  C38  1  0.85150000  0.46670000  0.34440000  1
  C  C39  1  0.87941000  0.50899000  0.28970000  1
  C  C40  1  0.85078000  0.55602000  0.27160000  1
  C  C41  1  0.79269000  0.55691000  0.30500000  1
  C  C42  1  0.94321000  0.50619000  0.25400000  1
  C  C43  1  0.94110000  0.50430000  0.18800000  1
  C  C44  1  0.51199000  0.69921000  0.39470000  1
  C  C45  1  0.51275000  0.76245000  0.35850000  1
  C  C46  1  0.46582000  0.79138000  0.37750000  1
  C  C47  1  0.46670000  0.85150000  0.34440000  1
  C  C48  1  0.50899000  0.87941000  0.28970000  1
  C  C49  1  0.55602000  0.85078000  0.27160000  1
  C  C50  1  0.55691000  0.79269000  0.30500000  1
  C  C51  1  0.50619000  0.94321000  0.25400000  1
  C  C52  1  0.50430000  0.94110000  0.18800000  1
  C  C53  1  0.50000000  1.00000000  0.28610000  1
  C  C54  1  0.50000000  1.00000000  0.15580000  1
  C  C55  1  0.50000000  1.00000000  0.08900000  1
  C  C56  1  0.50000000  1.00000000  0.03220000  1
  C  C57  1  0.48801000  0.30079000  0.39470000  1
  C  C58  1  0.48725000  0.23755000  0.35850000  1
  C  C59  1  0.53418000  0.20862000  0.37750000  1
  C  C60  1  0.53330000  0.14850000  0.34440000  1
  C  C61  1  0.49101000  0.12059000  0.28970000  1
  C  C62  1  0.44398000  0.14922000  0.27160000  1
  C  C63  1  0.44309000  0.20731000  0.30500000  1
  C  C64  1  0.49381000  0.05679000  0.25400000  1
  C  C65  1  0.49570000  0.05890000  0.18800000  1
  C  C66  1  0.69921000  0.51199000  0.60530000  1
  C  C67  1  0.76245000  0.51275000  0.64150000  1
  C  C68  1  0.79138000  0.46582000  0.62250000  1
  C  C69  1  0.85150000  0.46670000  0.65560000  1
  C  C70  1  0.87941000  0.50899000  0.71030000  1
  C  C71  1  0.85078000  0.55602000  0.72840000  1
  C  C72  1  0.79269000  0.55691000  0.69500000  1
  C  C73  1  0.94321000  0.50619000  0.74600000  1
  C  C74  1  0.94110000  0.50430000  0.81200000  1
  C  C75  1  0.00000000  0.50000000  0.71390000  1
  C  C76  1  0.00000000  0.50000000  0.84420000  1
  C  C77  1  0.00000000  0.50000000  0.91100000  1
  C  C78  1  0.00000000  0.50000000  0.96780000  1
  C  C79  1  0.30079000  0.48801000  0.60530000  1
  C  C80  1  0.23755000  0.48725000  0.64150000  1
  C  C81  1  0.20862000  0.53418000  0.62250000  1
  C  C82  1  0.14850000  0.53330000  0.65560000  1
  C  C83  1  0.12059000  0.49101000  0.71030000  1
  C  C84  1  0.14922000  0.44398000  0.72840000  1
  C  C85  1  0.20731000  0.44309000  0.69500000  1
  C  C86  1  0.05679000  0.49381000  0.74600000  1
  C  C87  1  0.05890000  0.49570000  0.81200000  1
  H  H88  1  0.56630000  0.22950000  0.58760000  1
  H  H89  1  0.56180000  0.12640000  0.64060000  1
  H  H90  1  0.41250000  0.12890000  0.76370000  1
  H  H91  1  0.41190000  0.22690000  0.70870000  1
  H  H92  1  0.49420000  0.09840000  0.83400000  1
  H  H93  1  0.50000000  1.00000000  0.66980000  1
  H  H94  1  0.43370000  0.77050000  0.58760000  1
  H  H95  1  0.43820000  0.87360000  0.64060000  1
  H  H96  1  0.58750000  0.87110000  0.76370000  1
  H  H97  1  0.58810000  0.77310000  0.70870000  1
  H  H98  1  0.50580000  0.90160000  0.83400000  1
  H  H99  1  0.22950000  0.56630000  0.41240000  1
  H  H100  1  0.12640000  0.56180000  0.35940000  1
  H  H101  1  0.12890000  0.41250000  0.23630000  1
  H  H102  1  0.22690000  0.41190000  0.29130000  1
  H  H103  1  0.09840000  0.49420000  0.16600000  1
  H  H104  1  0.00000000  0.50000000  0.33020000  1
  H  H105  1  0.77050000  0.43370000  0.41240000  1
  H  H106  1  0.87360000  0.43820000  0.35940000  1
  H  H107  1  0.87110000  0.58750000  0.23630000  1
  H  H108  1  0.77310000  0.58810000  0.29130000  1
  H  H109  1  0.90160000  0.50580000  0.16600000  1
  H  H110  1  0.43370000  0.77050000  0.41240000  1
  H  H111  1  0.43820000  0.87360000  0.35940000  1
  H  H112  1  0.58750000  0.87110000  0.23630000  1
  H  H113  1  0.58810000  0.77310000  0.29130000  1
  H  H114  1  0.50580000  0.90160000  0.16600000  1
  H  H115  1  0.50000000  1.00000000  0.33020000  1
  H  H116  1  0.56630000  0.22950000  0.41240000  1
  H  H117  1  0.56180000  0.12640000  0.35940000  1
  H  H118  1  0.41250000  0.12890000  0.23630000  1
  H  H119  1  0.41190000  0.22690000  0.29130000  1
  H  H120  1  0.49420000  0.09840000  0.16600000  1
  H  H121  1  0.77050000  0.43370000  0.58760000  1
  H  H122  1  0.87360000  0.43820000  0.64060000  1
  H  H123  1  0.87110000  0.58750000  0.76370000  1
  H  H124  1  0.77310000  0.58810000  0.70870000  1
  H  H125  1  0.90160000  0.50580000  0.83400000  1
  H  H126  1  0.00000000  0.50000000  0.66980000  1
  H  H127  1  0.22950000  0.56630000  0.58760000  1
  H  H128  1  0.12640000  0.56180000  0.64060000  1
  H  H129  1  0.12890000  0.41250000  0.76370000  1
  H  H130  1  0.22690000  0.41190000  0.70870000  1
  H  H131  1  0.09840000  0.49420000  0.83400000  1
  O  O132  1  0.43691000  0.31921000  0.61831000  1
  O  O133  1  0.53690000  0.33022000  0.56243000  1
  O  O134  1  0.53548000  0.46452000  0.58440000  1
  O  O135  1  0.44654000  0.37806000  0.50000000  1
  O  O136  1  0.56309000  0.68079000  0.61831000  1
  O  O137  1  0.46310000  0.66978000  0.56243000  1
  O  O138  1  0.46452000  0.53548000  0.58440000  1
  O  O139  1  0.55346000  0.62194000  0.50000000  1
  O  O140  1  0.31921000  0.43691000  0.38169000  1
  O  O141  1  0.33022000  0.53690000  0.43757000  1
  O  O142  1  0.46452000  0.53548000  0.41560000  1
  O  O143  1  0.37806000  0.44654000  0.50000000  1
  O  O144  1  0.68079000  0.56309000  0.38169000  1
  O  O145  1  0.66978000  0.46310000  0.43757000  1
  O  O146  1  0.53548000  0.46452000  0.41560000  1
  O  O147  1  0.62194000  0.55346000  0.50000000  1
  O  O148  1  0.56309000  0.68079000  0.38169000  1
  O  O149  1  0.46310000  0.66978000  0.43757000  1
  O  O150  1  0.43691000  0.31921000  0.38169000  1
  O  O151  1  0.53690000  0.33022000  0.43757000  1
  O  O152  1  0.68079000  0.56309000  0.61831000  1
  O  O153  1  0.66978000  0.46310000  0.56243000  1
  O  O154  1  0.31921000  0.43691000  0.61831000  1
  O  O155  1  0.33022000  0.53690000  0.56243000  1
  Zr  Zr156  1  0.57069000  0.42931000  0.50000000  1
  Zr  Zr157  1  0.41284000  0.41284000  0.58396000  1
  Zr  Zr158  1  0.42931000  0.57069000  0.50000000  1
  Zr  Zr159  1  0.58716000  0.58716000  0.58396000  1
  Zr  Zr160  1  0.41284000  0.41284000  0.41604000  1
  Zr  Zr161  1  0.58716000  0.58716000  0.41604000  1
