# generated using pymatgen
data_Zr3H22(C11O4)4
_symmetry_space_group_name_H-M   'P 1'
_cell_length_a   20.22378215
_cell_length_b   20.22378215
_cell_length_c   20.88800000
_cell_angle_alpha   90.00000000
_cell_angle_beta   90.00000000
_cell_angle_gamma   112.99152893
_symmetry_Int_Tables_number   1
_chemical_formula_structural   Zr3H22(C11O4)4
_chemical_formula_sum   'Zr6 H44 C88 O32'
_cell_volume   7864.56938168
_cell_formula_units_Z   2
loop_
 _symmetry_equiv_pos_site_id
 _symmetry_equiv_pos_as_xyz
  1  'x, y, z'
loop_
 _atom_site_type_symbol
 _atom_site_label
 _atom_site_symmetry_multiplicity
 _atom_site_fract_x
 _atom_site_fract_y
 _atom_site_fract_z
 _atom_site_occupancy
  C  C0  1  0.80790000  0.99810000  0.39430000  1
  C  C1  1  0.50000000  0.00000000  0.28860000  1
  C  C2  1  0.62430000  0.00010000  0.29300000  1
  C  C3  1  0.74260000  0.99600000  0.35890000  1
  C  C4  1  0.55930000  0.99790000  0.25700000  1
  C  C5  1  0.64960000  0.04060000  0.34530000  1
  C  C6  1  0.70620000  0.04000000  0.37820000  1
  C  C7  1  0.55900000  0.99840000  0.19120000  1
  C  C8  1  0.65800000  0.95480000  0.27440000  1
  C  C9  1  0.71620000  0.95420000  0.30780000  1
  C  C10  1  0.50000000  0.00000000  0.15800000  1
  C  C11  1  0.50000000  0.00000000  0.08970000  1
  C  C12  1  0.50000000  0.00000000  0.03350000  1
  C  C13  1  0.19210000  0.00190000  0.39430000  1
  C  C14  1  0.37570000  0.99990000  0.29300000  1
  C  C15  1  0.25740000  0.00400000  0.35890000  1
  C  C16  1  0.44070000  0.00210000  0.25700000  1
  C  C17  1  0.35040000  0.95940000  0.34530000  1
  C  C18  1  0.29380000  0.96000000  0.37820000  1
  C  C19  1  0.44100000  0.00160000  0.19120000  1
  C  C20  1  0.34200000  0.04520000  0.27440000  1
  C  C21  1  0.28380000  0.04580000  0.30780000  1
  C  C22  1  0.80790000  0.99810000  0.60570000  1
  C  C23  1  0.50000000  0.00000000  0.71140000  1
  C  C24  1  0.62430000  0.00010000  0.70700000  1
  C  C25  1  0.74260000  0.99600000  0.64110000  1
  C  C26  1  0.55930000  0.99790000  0.74300000  1
  C  C27  1  0.64960000  0.04060000  0.65470000  1
  C  C28  1  0.70620000  0.04000000  0.62180000  1
  C  C29  1  0.55900000  0.99840000  0.80880000  1
  C  C30  1  0.65800000  0.95480000  0.72560000  1
  C  C31  1  0.71620000  0.95420000  0.69220000  1
  C  C32  1  0.50000000  0.00000000  0.84200000  1
  C  C33  1  0.50000000  0.00000000  0.91030000  1
  C  C34  1  0.50000000  0.00000000  0.96650000  1
  C  C35  1  0.19210000  0.00190000  0.60570000  1
  C  C36  1  0.37570000  0.99990000  0.70700000  1
  C  C37  1  0.25740000  0.00400000  0.64110000  1
  C  C38  1  0.44070000  0.00210000  0.74300000  1
  C  C39  1  0.35040000  0.95940000  0.65470000  1
  C  C40  1  0.29380000  0.96000000  0.62180000  1
  C  C41  1  0.44100000  0.00160000  0.80880000  1
  C  C42  1  0.34200000  0.04520000  0.72560000  1
  C  C43  1  0.28380000  0.04580000  0.69220000  1
  C  C44  1  0.99810000  0.80790000  0.60570000  1
  C  C45  1  0.00000000  0.50000000  0.71140000  1
  C  C46  1  0.00010000  0.62430000  0.70700000  1
  C  C47  1  0.99600000  0.74260000  0.64110000  1
  C  C48  1  0.99790000  0.55930000  0.74300000  1
  C  C49  1  0.04060000  0.64960000  0.65470000  1
  C  C50  1  0.04000000  0.70620000  0.62180000  1
  C  C51  1  0.99840000  0.55900000  0.80880000  1
  C  C52  1  0.95480000  0.65800000  0.72560000  1
  C  C53  1  0.95420000  0.71620000  0.69220000  1
  C  C54  1  0.00000000  0.50000000  0.84200000  1
  C  C55  1  0.00000000  0.50000000  0.91030000  1
  C  C56  1  0.00000000  0.50000000  0.96650000  1
  C  C57  1  0.00190000  0.19210000  0.60570000  1
  C  C58  1  0.99990000  0.37570000  0.70700000  1
  C  C59  1  0.00400000  0.25740000  0.64110000  1
  C  C60  1  0.00210000  0.44070000  0.74300000  1
  C  C61  1  0.95940000  0.35040000  0.65470000  1
  C  C62  1  0.96000000  0.29380000  0.62180000  1
  C  C63  1  0.00160000  0.44100000  0.80880000  1
  C  C64  1  0.04520000  0.34200000  0.72560000  1
  C  C65  1  0.04580000  0.28380000  0.69220000  1
  C  C66  1  0.99810000  0.80790000  0.39430000  1
  C  C67  1  0.00000000  0.50000000  0.28860000  1
  C  C68  1  0.00010000  0.62430000  0.29300000  1
  C  C69  1  0.99600000  0.74260000  0.35890000  1
  C  C70  1  0.99790000  0.55930000  0.25700000  1
  C  C71  1  0.04060000  0.64960000  0.34530000  1
  C  C72  1  0.04000000  0.70620000  0.37820000  1
  C  C73  1  0.99840000  0.55900000  0.19120000  1
  C  C74  1  0.95480000  0.65800000  0.27440000  1
  C  C75  1  0.95420000  0.71620000  0.30780000  1
  C  C76  1  0.00000000  0.50000000  0.15800000  1
  C  C77  1  0.00000000  0.50000000  0.08970000  1
  C  C78  1  0.00000000  0.50000000  0.03350000  1
  C  C79  1  0.00190000  0.19210000  0.39430000  1
  C  C80  1  0.99990000  0.37570000  0.29300000  1
  C  C81  1  0.00400000  0.25740000  0.35890000  1
  C  C82  1  0.00210000  0.44070000  0.25700000  1
  C  C83  1  0.95940000  0.35040000  0.34530000  1
  C  C84  1  0.96000000  0.29380000  0.37820000  1
  C  C85  1  0.00160000  0.44100000  0.19120000  1
  C  C86  1  0.04520000  0.34200000  0.27440000  1
  C  C87  1  0.04580000  0.28380000  0.30780000  1
  H  H88  1  0.50000000  0.00000000  0.33310000  1
  H  H89  1  0.62700000  0.07020000  0.35910000  1
  H  H90  1  0.72180000  0.06900000  0.41420000  1
  H  H91  1  0.59840000  0.99740000  0.16880000  1
  H  H92  1  0.64090000  0.92490000  0.23910000  1
  H  H93  1  0.73790000  0.92370000  0.29440000  1
  H  H94  1  0.37300000  0.92980000  0.35910000  1
  H  H95  1  0.27820000  0.93100000  0.41420000  1
  H  H96  1  0.40160000  0.00260000  0.16880000  1
  H  H97  1  0.35910000  0.07510000  0.23910000  1
  H  H98  1  0.26210000  0.07630000  0.29440000  1
  H  H99  1  0.50000000  0.00000000  0.66690000  1
  H  H100  1  0.62700000  0.07020000  0.64090000  1
  H  H101  1  0.72180000  0.06900000  0.58580000  1
  H  H102  1  0.59840000  0.99740000  0.83120000  1
  H  H103  1  0.64090000  0.92490000  0.76090000  1
  H  H104  1  0.73790000  0.92370000  0.70560000  1
  H  H105  1  0.37300000  0.92980000  0.64090000  1
  H  H106  1  0.27820000  0.93100000  0.58580000  1
  H  H107  1  0.40160000  0.00260000  0.83120000  1
  H  H108  1  0.35910000  0.07510000  0.76090000  1
  H  H109  1  0.26210000  0.07630000  0.70560000  1
  H  H110  1  0.00000000  0.50000000  0.66690000  1
  H  H111  1  0.07020000  0.62700000  0.64090000  1
  H  H112  1  0.06900000  0.72180000  0.58580000  1
  H  H113  1  0.99740000  0.59840000  0.83120000  1
  H  H114  1  0.92490000  0.64090000  0.76090000  1
  H  H115  1  0.92370000  0.73790000  0.70560000  1
  H  H116  1  0.92980000  0.37300000  0.64090000  1
  H  H117  1  0.93100000  0.27820000  0.58580000  1
  H  H118  1  0.00260000  0.40160000  0.83120000  1
  H  H119  1  0.07510000  0.35910000  0.76090000  1
  H  H120  1  0.07630000  0.26210000  0.70560000  1
  H  H121  1  0.00000000  0.50000000  0.33310000  1
  H  H122  1  0.07020000  0.62700000  0.35910000  1
  H  H123  1  0.06900000  0.72180000  0.41420000  1
  H  H124  1  0.99740000  0.59840000  0.16880000  1
  H  H125  1  0.92490000  0.64090000  0.23910000  1
  H  H126  1  0.92370000  0.73790000  0.29440000  1
  H  H127  1  0.92980000  0.37300000  0.35910000  1
  H  H128  1  0.93100000  0.27820000  0.41420000  1
  H  H129  1  0.00260000  0.40160000  0.16880000  1
  H  H130  1  0.07510000  0.35910000  0.23910000  1
  H  H131  1  0.07630000  0.26210000  0.29440000  1
  O  O132  1  0.83306000  0.04534000  0.43600000  1
  O  O133  1  0.83015000  0.94945000  0.38060000  1
  O  O134  1  0.96400000  0.03600000  0.58360000  1
  O  O135  1  0.04430000  0.11610000  0.50000000  1
  O  O136  1  0.06250000  0.06250000  0.68820000  1
  O  O137  1  0.17630000  0.17630000  0.57500000  1
  O  O138  1  0.16694000  0.95466000  0.43600000  1
  O  O139  1  0.16985000  0.05055000  0.38060000  1
  O  O140  1  0.83306000  0.04534000  0.56400000  1
  O  O141  1  0.83015000  0.94945000  0.61940000  1
  O  O142  1  0.16694000  0.95466000  0.56400000  1
  O  O143  1  0.16985000  0.05055000  0.61940000  1
  O  O144  1  0.03600000  0.96400000  0.58360000  1
  O  O145  1  0.95570000  0.88390000  0.50000000  1
  O  O146  1  0.93750000  0.93750000  0.68820000  1
  O  O147  1  0.82370000  0.82370000  0.57500000  1
  O  O148  1  0.95466000  0.16694000  0.56400000  1
  O  O149  1  0.95466000  0.16694000  0.43600000  1
  O  O150  1  0.94945000  0.83015000  0.61940000  1
  O  O151  1  0.05055000  0.16985000  0.61940000  1
  O  O152  1  0.96400000  0.03600000  0.41640000  1
  O  O153  1  0.11610000  0.04430000  0.50000000  1
  O  O154  1  0.88390000  0.95570000  0.50000000  1
  O  O155  1  0.04534000  0.83306000  0.56400000  1
  O  O156  1  0.04534000  0.83306000  0.43600000  1
  O  O157  1  0.03600000  0.96400000  0.41640000  1
  O  O158  1  0.06250000  0.06250000  0.31180000  1
  O  O159  1  0.17630000  0.17630000  0.42500000  1
  O  O160  1  0.94945000  0.83015000  0.38060000  1
  O  O161  1  0.05055000  0.16985000  0.38060000  1
  O  O162  1  0.93750000  0.93750000  0.31180000  1
  O  O163  1  0.82370000  0.82370000  0.42500000  1
  Zr  Zr164  1  0.92691000  0.07309000  0.50000000  1
  Zr  Zr165  1  0.07875000  0.07875000  0.58453000  1
  Zr  Zr166  1  0.92125000  0.92125000  0.58453000  1
  Zr  Zr167  1  0.07309000  0.92691000  0.50000000  1
  Zr  Zr168  1  0.07875000  0.07875000  0.41547000  1
  Zr  Zr169  1  0.92125000  0.92125000  0.41547000  1
