# generated using pymatgen
data_Zr3H34C63O16
_symmetry_space_group_name_H-M   'P 1'
_cell_length_a   19.91607289
_cell_length_b   19.91607289
_cell_length_c   21.54660000
_cell_angle_alpha   90.00000000
_cell_angle_beta   90.00000000
_cell_angle_gamma   108.52593815
_symmetry_Int_Tables_number   1
_chemical_formula_structural   Zr3H34C63O16
_chemical_formula_sum   'Zr6 H68 C126 O32'
_cell_volume   8103.57980880
_cell_formula_units_Z   2
loop_
 _symmetry_equiv_pos_site_id
 _symmetry_equiv_pos_as_xyz
  1  'x, y, z'
loop_
 _atom_site_type_symbol
 _atom_site_label
 _atom_site_symmetry_multiplicity
 _atom_site_fract_x
 _atom_site_fract_y
 _atom_site_fract_z
 _atom_site_occupancy
  C  C0  1  0.99750000  0.19230000  0.39490000  1
  C  C1  1  0.99580000  0.25500000  0.35700000  1
  C  C2  1  0.03820000  0.27380000  0.30390000  1
  C  C3  1  0.95410000  0.29570000  0.37420000  1
  C  C4  1  0.03730000  0.33150000  0.26830000  1
  C  C5  1  0.99570000  0.37370000  0.28680000  1
  C  C6  1  0.95330000  0.35410000  0.34000000  1
  C  C7  1  0.99880000  0.43900000  0.18640000  1
  C  C8  1  0.99740000  0.43740000  0.25050000  1
  C  C9  1  0.00250000  0.80770000  0.39490000  1
  C  C10  1  0.00420000  0.74500000  0.35700000  1
  C  C11  1  0.96180000  0.72620000  0.30390000  1
  C  C12  1  0.04590000  0.70430000  0.37420000  1
  C  C13  1  0.96270000  0.66850000  0.26830000  1
  C  C14  1  0.00430000  0.62630000  0.28680000  1
  C  C15  1  0.04670000  0.64590000  0.34000000  1
  C  C16  1  0.00120000  0.56100000  0.18640000  1
  C  C17  1  0.00260000  0.56260000  0.25050000  1
  C  C18  1  0.80770000  0.00250000  0.60510000  1
  C  C19  1  0.74500000  0.00420000  0.64300000  1
  C  C20  1  0.72620000  0.96180000  0.69610000  1
  C  C21  1  0.70430000  0.04590000  0.62580000  1
  C  C22  1  0.66850000  0.96270000  0.73170000  1
  C  C23  1  0.62630000  0.00430000  0.71320000  1
  C  C24  1  0.64590000  0.04670000  0.66000000  1
  C  C25  1  0.56100000  0.00120000  0.81360000  1
  C  C26  1  0.56260000  0.00260000  0.74950000  1
  C  C27  1  0.19230000  0.99750000  0.60510000  1
  C  C28  1  0.25500000  0.99580000  0.64300000  1
  C  C29  1  0.27380000  0.03820000  0.69610000  1
  C  C30  1  0.29570000  0.95410000  0.62580000  1
  C  C31  1  0.33150000  0.03730000  0.73170000  1
  C  C32  1  0.37370000  0.99570000  0.71320000  1
  C  C33  1  0.35410000  0.95330000  0.66000000  1
  C  C34  1  0.43900000  0.99880000  0.81360000  1
  C  C35  1  0.43740000  0.99740000  0.74950000  1
  C  C36  1  0.00250000  0.80770000  0.60510000  1
  C  C37  1  0.00420000  0.74500000  0.64300000  1
  C  C38  1  0.96180000  0.72620000  0.69610000  1
  C  C39  1  0.04590000  0.70430000  0.62580000  1
  C  C40  1  0.96270000  0.66850000  0.73170000  1
  C  C41  1  0.00430000  0.62630000  0.71320000  1
  C  C42  1  0.04670000  0.64590000  0.66000000  1
  C  C43  1  0.00120000  0.56100000  0.81360000  1
  C  C44  1  0.00260000  0.56260000  0.74950000  1
  C  C45  1  0.99750000  0.19230000  0.60510000  1
  C  C46  1  0.99580000  0.25500000  0.64300000  1
  C  C47  1  0.03820000  0.27380000  0.69610000  1
  C  C48  1  0.95410000  0.29570000  0.62580000  1
  C  C49  1  0.03730000  0.33150000  0.73170000  1
  C  C50  1  0.99570000  0.37370000  0.71320000  1
  C  C51  1  0.95330000  0.35410000  0.66000000  1
  C  C52  1  0.99880000  0.43900000  0.81360000  1
  C  C53  1  0.99740000  0.43740000  0.74950000  1
  C  C54  1  0.19230000  0.99750000  0.39490000  1
  C  C55  1  0.25500000  0.99580000  0.35700000  1
  C  C56  1  0.27380000  0.03820000  0.30390000  1
  C  C57  1  0.29570000  0.95410000  0.37420000  1
  C  C58  1  0.33150000  0.03730000  0.26830000  1
  C  C59  1  0.37370000  0.99570000  0.28680000  1
  C  C60  1  0.35410000  0.95330000  0.34000000  1
  C  C61  1  0.43900000  0.99880000  0.18640000  1
  C  C62  1  0.43740000  0.99740000  0.25050000  1
  C  C63  1  0.80770000  0.00250000  0.39490000  1
  C  C64  1  0.74500000  0.00420000  0.35700000  1
  C  C65  1  0.72620000  0.96180000  0.30390000  1
  C  C66  1  0.70430000  0.04590000  0.37420000  1
  C  C67  1  0.66850000  0.96270000  0.26830000  1
  C  C68  1  0.62630000  0.00430000  0.28680000  1
  C  C69  1  0.64590000  0.04670000  0.34000000  1
  C  C70  1  0.56100000  0.00120000  0.18640000  1
  C  C71  1  0.56260000  0.00260000  0.25050000  1
  C  C72  1  0.28590000  0.28590000  0.55370000  1
  C  C73  1  0.94940000  0.94940000  0.19080000  1
  C  C74  1  0.34500000  0.34500000  0.55360000  1
  C  C75  1  0.94870000  0.94870000  0.12780000  1
  C  C76  1  0.71410000  0.71410000  0.55370000  1
  C  C77  1  0.05060000  0.05060000  0.19080000  1
  C  C78  1  0.65500000  0.65500000  0.55360000  1
  C  C79  1  0.05130000  0.05130000  0.12780000  1
  C  C80  1  0.71410000  0.71410000  0.44630000  1
  C  C81  1  0.05060000  0.05060000  0.80920000  1
  C  C82  1  0.65500000  0.65500000  0.44640000  1
  C  C83  1  0.05130000  0.05130000  0.87220000  1
  C  C84  1  0.28590000  0.28590000  0.44630000  1
  C  C85  1  0.94940000  0.94940000  0.80920000  1
  C  C86  1  0.34500000  0.34500000  0.44640000  1
  C  C87  1  0.94870000  0.94870000  0.87220000  1
  C  C88  1  0.50540000  0.43300000  0.50000000  1
  C  C89  1  0.52660000  0.36740000  0.50000000  1
  C  C90  1  0.49460000  0.56700000  0.50000000  1
  C  C91  1  0.47340000  0.63260000  0.50000000  1
  C  C92  1  0.56700000  0.49460000  0.50000000  1
  C  C93  1  0.43300000  0.50540000  0.50000000  1
  C  C94  1  0.00000000  0.00000000  0.29280000  1
  C  C95  1  0.00000000  0.00000000  0.22360000  1
  C  C96  1  0.00000000  0.00000000  0.09450000  1
  C  C97  1  0.00000000  0.00000000  0.02780000  1
  C  C98  1  0.00000000  0.00000000  0.70720000  1
  C  C99  1  0.00000000  0.00000000  0.77640000  1
  C  C100  1  0.00000000  0.00000000  0.90550000  1
  C  C101  1  0.00000000  0.00000000  0.97220000  1
  C  C102  1  0.19140000  0.19140000  0.50000000  1
  C  C103  1  0.25550000  0.25550000  0.50000000  1
  C  C104  1  0.37550000  0.37550000  0.50000000  1
  C  C105  1  0.43900000  0.43900000  0.50000000  1
  C  C106  1  0.80860000  0.80860000  0.50000000  1
  C  C107  1  0.74450000  0.74450000  0.50000000  1
  C  C108  1  0.62450000  0.62450000  0.50000000  1
  C  C109  1  0.56100000  0.56100000  0.50000000  1
  C  C110  1  0.00000000  0.50000000  0.28240000  1
  C  C111  1  0.00000000  0.50000000  0.15470000  1
  C  C112  1  0.00000000  0.50000000  0.08630000  1
  C  C113  1  0.00000000  0.50000000  0.03130000  1
  C  C114  1  0.50000000  0.00000000  0.71760000  1
  C  C115  1  0.50000000  0.00000000  0.84530000  1
  C  C116  1  0.50000000  0.00000000  0.91370000  1
  C  C117  1  0.50000000  0.00000000  0.96870000  1
  C  C118  1  0.00000000  0.50000000  0.71760000  1
  C  C119  1  0.00000000  0.50000000  0.84530000  1
  C  C120  1  0.00000000  0.50000000  0.91370000  1
  C  C121  1  0.00000000  0.50000000  0.96870000  1
  C  C122  1  0.50000000  0.00000000  0.28240000  1
  C  C123  1  0.50000000  0.00000000  0.15470000  1
  C  C124  1  0.50000000  0.00000000  0.08630000  1
  C  C125  1  0.50000000  0.00000000  0.03130000  1
  H  H126  1  0.06720000  0.24740000  0.29240000  1
  H  H127  1  0.92600000  0.28360000  0.40950000  1
  H  H128  1  0.06400000  0.34240000  0.23220000  1
  H  H129  1  0.92460000  0.38040000  0.35220000  1
  H  H130  1  0.99890000  0.39870000  0.16440000  1
  H  H131  1  0.55430000  0.36650000  0.46360000  1
  H  H132  1  0.93280000  0.75260000  0.29240000  1
  H  H133  1  0.07400000  0.71640000  0.40950000  1
  H  H134  1  0.93600000  0.65760000  0.23220000  1
  H  H135  1  0.07540000  0.61960000  0.35220000  1
  H  H136  1  0.00110000  0.60130000  0.16440000  1
  H  H137  1  0.44570000  0.63350000  0.46360000  1
  H  H138  1  0.75260000  0.93280000  0.70760000  1
  H  H139  1  0.71640000  0.07400000  0.59050000  1
  H  H140  1  0.65760000  0.93600000  0.76780000  1
  H  H141  1  0.61960000  0.07540000  0.64780000  1
  H  H142  1  0.60130000  0.00110000  0.83560000  1
  H  H143  1  0.24740000  0.06720000  0.70760000  1
  H  H144  1  0.28360000  0.92600000  0.59050000  1
  H  H145  1  0.34240000  0.06400000  0.76780000  1
  H  H146  1  0.38040000  0.92460000  0.64780000  1
  H  H147  1  0.39870000  0.99890000  0.83560000  1
  H  H148  1  0.93280000  0.75260000  0.70760000  1
  H  H149  1  0.07400000  0.71640000  0.59050000  1
  H  H150  1  0.93600000  0.65760000  0.76780000  1
  H  H151  1  0.07540000  0.61960000  0.64780000  1
  H  H152  1  0.00110000  0.60130000  0.83560000  1
  H  H153  1  0.44570000  0.63350000  0.53640000  1
  H  H154  1  0.06720000  0.24740000  0.70760000  1
  H  H155  1  0.92600000  0.28360000  0.59050000  1
  H  H156  1  0.06400000  0.34240000  0.76780000  1
  H  H157  1  0.92460000  0.38040000  0.64780000  1
  H  H158  1  0.99890000  0.39870000  0.83560000  1
  H  H159  1  0.55430000  0.36650000  0.53640000  1
  H  H160  1  0.24740000  0.06720000  0.29240000  1
  H  H161  1  0.28360000  0.92600000  0.40950000  1
  H  H162  1  0.34240000  0.06400000  0.23220000  1
  H  H163  1  0.38040000  0.92460000  0.35220000  1
  H  H164  1  0.39870000  0.99890000  0.16440000  1
  H  H165  1  0.75260000  0.93280000  0.29240000  1
  H  H166  1  0.71640000  0.07400000  0.40950000  1
  H  H167  1  0.65760000  0.93600000  0.23220000  1
  H  H168  1  0.61960000  0.07540000  0.35220000  1
  H  H169  1  0.60130000  0.00110000  0.16440000  1
  H  H170  1  0.26630000  0.26630000  0.59130000  1
  H  H171  1  0.91470000  0.91470000  0.21230000  1
  H  H172  1  0.36450000  0.36450000  0.59130000  1
  H  H173  1  0.91380000  0.91380000  0.10680000  1
  H  H174  1  0.73370000  0.73370000  0.59130000  1
  H  H175  1  0.08530000  0.08530000  0.21230000  1
  H  H176  1  0.63550000  0.63550000  0.59130000  1
  H  H177  1  0.08620000  0.08620000  0.10680000  1
  H  H178  1  0.73370000  0.73370000  0.40870000  1
  H  H179  1  0.08530000  0.08530000  0.78770000  1
  H  H180  1  0.63550000  0.63550000  0.40870000  1
  H  H181  1  0.08620000  0.08620000  0.89320000  1
  H  H182  1  0.26630000  0.26630000  0.40870000  1
  H  H183  1  0.91470000  0.91470000  0.78770000  1
  H  H184  1  0.36450000  0.36450000  0.40870000  1
  H  H185  1  0.91380000  0.91380000  0.89320000  1
  H  H186  1  0.48460000  0.32740000  0.50000000  1
  H  H187  1  0.51540000  0.67260000  0.50000000  1
  H  H188  1  0.00000000  0.50000000  0.32560000  1
  H  H189  1  0.50000000  0.00000000  0.67440000  1
  H  H190  1  0.00000000  0.50000000  0.67440000  1
  H  H191  1  0.50000000  0.00000000  0.32560000  1
  H  H192  1  0.62160000  0.48754000  0.50000000  1
  H  H193  1  0.37840000  0.51246000  0.50000000  1
  O  O194  1  0.94912000  0.16998000  0.43568000  1
  O  O195  1  0.04767000  0.16769000  0.38292000  1
  O  O196  1  0.05088000  0.83002000  0.43568000  1
  O  O197  1  0.95233000  0.83231000  0.38292000  1
  O  O198  1  0.83002000  0.05088000  0.56432000  1
  O  O199  1  0.83231000  0.95233000  0.61708000  1
  O  O200  1  0.16998000  0.94912000  0.56432000  1
  O  O201  1  0.16769000  0.04767000  0.61708000  1
  O  O202  1  0.05088000  0.83002000  0.56432000  1
  O  O203  1  0.95233000  0.83231000  0.61708000  1
  O  O204  1  0.94912000  0.16998000  0.56432000  1
  O  O205  1  0.04767000  0.16769000  0.61708000  1
  O  O206  1  0.16998000  0.94912000  0.43568000  1
  O  O207  1  0.16769000  0.04767000  0.38292000  1
  O  O208  1  0.83002000  0.05088000  0.43568000  1
  O  O209  1  0.83231000  0.95233000  0.38292000  1
  O  O210  1  0.04860000  0.04860000  0.31920000  1
  O  O211  1  0.16690000  0.16690000  0.44700000  1
  O  O212  1  0.95140000  0.95140000  0.31920000  1
  O  O213  1  0.83310000  0.83310000  0.44700000  1
  O  O214  1  0.95140000  0.95140000  0.68080000  1
  O  O215  1  0.83310000  0.83310000  0.55300000  1
  O  O216  1  0.04860000  0.04860000  0.68080000  1
  O  O217  1  0.16690000  0.16690000  0.55300000  1
  O  O218  1  0.96210000  0.03790000  0.41970000  1
  O  O219  1  0.03790000  0.96210000  0.41970000  1
  O  O220  1  0.96210000  0.03790000  0.58030000  1
  O  O221  1  0.03790000  0.96210000  0.58030000  1
  O  O222  1  0.11200000  0.03640000  0.50000000  1
  O  O223  1  0.88800000  0.96360000  0.50000000  1
  O  O224  1  0.96360000  0.88800000  0.50000000  1
  O  O225  1  0.03640000  0.11200000  0.50000000  1
  Zr  Zr226  1  0.07515000  0.07515000  0.41851000  1
  Zr  Zr227  1  0.92485000  0.92485000  0.41851000  1
  Zr  Zr228  1  0.92485000  0.92485000  0.58149000  1
  Zr  Zr229  1  0.07515000  0.07515000  0.58149000  1
  Zr  Zr230  1  0.07689000  0.92311000  0.50000000  1
  Zr  Zr231  1  0.92311000  0.07689000  0.50000000  1
