# generated using pymatgen
data_Zr6H64C117O32
_symmetry_space_group_name_H-M   'P 1'
_cell_length_a   23.26640000
_cell_length_b   28.92161177
_cell_length_c   28.92161177
_cell_angle_alpha   69.38346411
_cell_angle_beta   66.28220920
_cell_angle_gamma   66.28220920
_symmetry_Int_Tables_number   1
_chemical_formula_structural   Zr6H64C117O32
_chemical_formula_sum   'Zr12 H128 C234 O64'
_cell_volume   15886.66731447
_cell_formula_units_Z   2
loop_
 _symmetry_equiv_pos_site_id
 _symmetry_equiv_pos_as_xyz
  1  'x, y, z'
loop_
 _atom_site_type_symbol
 _atom_site_label
 _atom_site_symmetry_multiplicity
 _atom_site_fract_x
 _atom_site_fract_y
 _atom_site_fract_z
 _atom_site_occupancy
  C  C0  1  0.27582000  0.91778000  0.72598000  1
  C  C1  1  0.29944000  0.96433000  0.70799000  1
  C  C2  1  0.62131000  0.18830000  0.38108000  1
  C  C3  1  0.57181000  0.17738000  0.43360000  1
  C  C4  1  0.30951000  0.99145000  0.65673000  1
  C  C5  1  0.31287000  0.97963000  0.74143000  1
  C  C6  1  0.33564000  0.02236000  0.72436000  1
  C  C7  1  0.58400000  0.12813000  0.46667000  1
  C  C8  1  0.51626000  0.21694000  0.45054000  1
  C  C9  1  0.33273000  0.03367000  0.63907000  1
  C  C10  1  0.53958000  0.11872000  0.51532000  1
  C  C11  1  0.34565000  0.04985000  0.67205000  1
  C  C12  1  0.48369000  0.15841000  0.53261000  1
  C  C13  1  0.43615000  0.14885000  0.58565000  1
  C  C14  1  0.47234000  0.20716000  0.49996000  1
  C  C15  1  0.41261000  0.18369000  0.61629000  1
  C  C16  1  0.41543000  0.10487000  0.60447000  1
  C  C17  1  0.36731000  0.17569000  0.66629000  1
  C  C18  1  0.36976000  0.09574000  0.65354000  1
  C  C19  1  0.76150000  0.73430000  0.80310000  1
  C  C20  1  0.34151000  0.21109000  0.69829000  1
  C  C21  1  0.34657000  0.13083000  0.68423000  1
  C  C22  1  0.31750000  0.23970000  0.72750000  1
  C  C23  1  0.78390000  0.68960000  0.84220000  1
  C  C24  1  0.08042000  0.72598000  0.91778000  1
  C  C25  1  0.02824000  0.70799000  0.96433000  1
  C  C26  1  0.80931000  0.38108000  0.18830000  1
  C  C27  1  0.81721000  0.43360000  0.17738000  1
  C  C28  1  0.04231000  0.65673000  0.99145000  1
  C  C29  1  0.96607000  0.74143000  0.97963000  1
  C  C30  1  0.91764000  0.72436000  0.02236000  1
  C  C31  1  0.82120000  0.46667000  0.12813000  1
  C  C32  1  0.81626000  0.45054000  0.21694000  1
  C  C33  1  0.99453000  0.63907000  0.03367000  1
  C  C34  1  0.82638000  0.51532000  0.11872000  1
  C  C35  1  0.93245000  0.67205000  0.04985000  1
  C  C36  1  0.82529000  0.53261000  0.15841000  1
  C  C37  1  0.82935000  0.58565000  0.14885000  1
  C  C38  1  0.82054000  0.49996000  0.20716000  1
  C  C39  1  0.78741000  0.61629000  0.18369000  1
  C  C40  1  0.87523000  0.60447000  0.10487000  1
  C  C41  1  0.79071000  0.66629000  0.17569000  1
  C  C42  1  0.88096000  0.65354000  0.09574000  1
  C  C43  1  0.70110000  0.80310000  0.73430000  1
  C  C44  1  0.74911000  0.69829000  0.21109000  1
  C  C45  1  0.83837000  0.68423000  0.13083000  1
  C  C46  1  0.71530000  0.72750000  0.23970000  1
  C  C47  1  0.68430000  0.84220000  0.68960000  1
  C  C48  1  0.72418000  0.27402000  0.08222000  1
  C  C49  1  0.70056000  0.29201000  0.03567000  1
  C  C50  1  0.37869000  0.61892000  0.81170000  1
  C  C51  1  0.42819000  0.56640000  0.82262000  1
  C  C52  1  0.69049000  0.34327000  0.00855000  1
  C  C53  1  0.68713000  0.25857000  0.02037000  1
  C  C54  1  0.66436000  0.27564000  0.97764000  1
  C  C55  1  0.41600000  0.53333000  0.87187000  1
  C  C56  1  0.48374000  0.54946000  0.78306000  1
  C  C57  1  0.66727000  0.36093000  0.96633000  1
  C  C58  1  0.46042000  0.48468000  0.88128000  1
  C  C59  1  0.65435000  0.32795000  0.95015000  1
  C  C60  1  0.51631000  0.46739000  0.84159000  1
  C  C61  1  0.56385000  0.41435000  0.85115000  1
  C  C62  1  0.52766000  0.50004000  0.79284000  1
  C  C63  1  0.58739000  0.38371000  0.81631000  1
  C  C64  1  0.58457000  0.39553000  0.89513000  1
  C  C65  1  0.63269000  0.33371000  0.82431000  1
  C  C66  1  0.63024000  0.34646000  0.90426000  1
  C  C67  1  0.23850000  0.19690000  0.26570000  1
  C  C68  1  0.65849000  0.30171000  0.78891000  1
  C  C69  1  0.65343000  0.31577000  0.86917000  1
  C  C70  1  0.68250000  0.27250000  0.76030000  1
  C  C71  1  0.91958000  0.08222000  0.27402000  1
  C  C72  1  0.97176000  0.03567000  0.29201000  1
  C  C73  1  0.19069000  0.81170000  0.61892000  1
  C  C74  1  0.18279000  0.82262000  0.56640000  1
  C  C75  1  0.95769000  0.00855000  0.34327000  1
  C  C76  1  0.03393000  0.02037000  0.25857000  1
  C  C77  1  0.08236000  0.97764000  0.27564000  1
  C  C78  1  0.17880000  0.87187000  0.53333000  1
  C  C79  1  0.18374000  0.78306000  0.54946000  1
  C  C80  1  0.00547000  0.96633000  0.36093000  1
  C  C81  1  0.17362000  0.88128000  0.48468000  1
  C  C82  1  0.06755000  0.95015000  0.32795000  1
  C  C83  1  0.17471000  0.84159000  0.46739000  1
  C  C84  1  0.17065000  0.85115000  0.41435000  1
  C  C85  1  0.17946000  0.79284000  0.50004000  1
  C  C86  1  0.21259000  0.81631000  0.38371000  1
  C  C87  1  0.12477000  0.89513000  0.39553000  1
  C  C88  1  0.20929000  0.82431000  0.33371000  1
  C  C89  1  0.11904000  0.90426000  0.34646000  1
  C  C90  1  0.29890000  0.26570000  0.19690000  1
  C  C91  1  0.25089000  0.78891000  0.30171000  1
  C  C92  1  0.16163000  0.86917000  0.31577000  1
  C  C93  1  0.28470000  0.76030000  0.27250000  1
  C  C94  1  0.72418000  0.08222000  0.27402000  1
  C  C95  1  0.70056000  0.03567000  0.29201000  1
  C  C96  1  0.37869000  0.81170000  0.61892000  1
  C  C97  1  0.42819000  0.82262000  0.56640000  1
  C  C98  1  0.69049000  0.00855000  0.34327000  1
  C  C99  1  0.68713000  0.02037000  0.25857000  1
  C  C100  1  0.66436000  0.97764000  0.27564000  1
  C  C101  1  0.41600000  0.87187000  0.53333000  1
  C  C102  1  0.48374000  0.78306000  0.54946000  1
  C  C103  1  0.66727000  0.96633000  0.36093000  1
  C  C104  1  0.46042000  0.88128000  0.48468000  1
  C  C105  1  0.65435000  0.95015000  0.32795000  1
  C  C106  1  0.51631000  0.84159000  0.46739000  1
  C  C107  1  0.56385000  0.85115000  0.41435000  1
  C  C108  1  0.52766000  0.79284000  0.50004000  1
  C  C109  1  0.58739000  0.81631000  0.38371000  1
  C  C110  1  0.58457000  0.89513000  0.39553000  1
  C  C111  1  0.63269000  0.82431000  0.33371000  1
  C  C112  1  0.63024000  0.90426000  0.34646000  1
  C  C113  1  0.23850000  0.26570000  0.19690000  1
  C  C114  1  0.65849000  0.78891000  0.30171000  1
  C  C115  1  0.65343000  0.86917000  0.31577000  1
  C  C116  1  0.68250000  0.76030000  0.27250000  1
  C  C117  1  0.21610000  0.31040000  0.15780000  1
  C  C118  1  0.91958000  0.27402000  0.08222000  1
  C  C119  1  0.97176000  0.29201000  0.03567000  1
  C  C120  1  0.19069000  0.61892000  0.81170000  1
  C  C121  1  0.18279000  0.56640000  0.82262000  1
  C  C122  1  0.95769000  0.34327000  0.00855000  1
  C  C123  1  0.03393000  0.25857000  0.02037000  1
  C  C124  1  0.08236000  0.27564000  0.97764000  1
  C  C125  1  0.17880000  0.53333000  0.87187000  1
  C  C126  1  0.18374000  0.54946000  0.78306000  1
  C  C127  1  0.00547000  0.36093000  0.96633000  1
  C  C128  1  0.17362000  0.48468000  0.88128000  1
  C  C129  1  0.06755000  0.32795000  0.95015000  1
  C  C130  1  0.17471000  0.46739000  0.84159000  1
  C  C131  1  0.17065000  0.41435000  0.85115000  1
  C  C132  1  0.17946000  0.50004000  0.79284000  1
  C  C133  1  0.21259000  0.38371000  0.81631000  1
  C  C134  1  0.12477000  0.39553000  0.89513000  1
  C  C135  1  0.20929000  0.33371000  0.82431000  1
  C  C136  1  0.11904000  0.34646000  0.90426000  1
  C  C137  1  0.29890000  0.19690000  0.26570000  1
  C  C138  1  0.25089000  0.30171000  0.78891000  1
  C  C139  1  0.16163000  0.31577000  0.86917000  1
  C  C140  1  0.28470000  0.27250000  0.76030000  1
  C  C141  1  0.31570000  0.15780000  0.31040000  1
  C  C142  1  0.27582000  0.72598000  0.91778000  1
  C  C143  1  0.29944000  0.70799000  0.96433000  1
  C  C144  1  0.62131000  0.38108000  0.18830000  1
  C  C145  1  0.57181000  0.43360000  0.17738000  1
  C  C146  1  0.30951000  0.65673000  0.99145000  1
  C  C147  1  0.31287000  0.74143000  0.97963000  1
  C  C148  1  0.33564000  0.72436000  0.02236000  1
  C  C149  1  0.58400000  0.46667000  0.12813000  1
  C  C150  1  0.51626000  0.45054000  0.21694000  1
  C  C151  1  0.33273000  0.63907000  0.03367000  1
  C  C152  1  0.53958000  0.51532000  0.11872000  1
  C  C153  1  0.34565000  0.67205000  0.04985000  1
  C  C154  1  0.48369000  0.53261000  0.15841000  1
  C  C155  1  0.43615000  0.58565000  0.14885000  1
  C  C156  1  0.47234000  0.49996000  0.20716000  1
  C  C157  1  0.41261000  0.61629000  0.18369000  1
  C  C158  1  0.41543000  0.60447000  0.10487000  1
  C  C159  1  0.36731000  0.66629000  0.17569000  1
  C  C160  1  0.36976000  0.65354000  0.09574000  1
  C  C161  1  0.76150000  0.80310000  0.73430000  1
  C  C162  1  0.34151000  0.69829000  0.21109000  1
  C  C163  1  0.34657000  0.68423000  0.13083000  1
  C  C164  1  0.31750000  0.72750000  0.23970000  1
  C  C165  1  0.08042000  0.91778000  0.72598000  1
  C  C166  1  0.02824000  0.96433000  0.70799000  1
  C  C167  1  0.80931000  0.18830000  0.38108000  1
  C  C168  1  0.81721000  0.17738000  0.43360000  1
  C  C169  1  0.04231000  0.99145000  0.65673000  1
  C  C170  1  0.96607000  0.97963000  0.74143000  1
  C  C171  1  0.91764000  0.02236000  0.72436000  1
  C  C172  1  0.82120000  0.12813000  0.46667000  1
  C  C173  1  0.81626000  0.21694000  0.45054000  1
  C  C174  1  0.99453000  0.03367000  0.63907000  1
  C  C175  1  0.82638000  0.11872000  0.51532000  1
  C  C176  1  0.93245000  0.04985000  0.67205000  1
  C  C177  1  0.82529000  0.15841000  0.53261000  1
  C  C178  1  0.82935000  0.14885000  0.58565000  1
  C  C179  1  0.82054000  0.20716000  0.49996000  1
  C  C180  1  0.78741000  0.18369000  0.61629000  1
  C  C181  1  0.87523000  0.10487000  0.60447000  1
  C  C182  1  0.79071000  0.17569000  0.66629000  1
  C  C183  1  0.88096000  0.09574000  0.65354000  1
  C  C184  1  0.70110000  0.73430000  0.80310000  1
  C  C185  1  0.74911000  0.21109000  0.69829000  1
  C  C186  1  0.83837000  0.13083000  0.68423000  1
  C  C187  1  0.71530000  0.23970000  0.72750000  1
  C  C188  1  0.03890000  0.76970000  0.76970000  1
  C  C189  1  0.97520000  0.76930000  0.76930000  1
  C  C190  1  0.97420000  0.74140000  0.74140000  1
  C  C191  1  0.85450000  0.76950000  0.76950000  1
  C  C192  1  0.91430000  0.74040000  0.74040000  1
  C  C193  1  0.11680000  0.93200000  0.93200000  1
  C  C194  1  0.91610000  0.79810000  0.79810000  1
  C  C195  1  0.08780000  0.96440000  0.96440000  1
  C  C196  1  0.85780000  0.79760000  0.79760000  1
  C  C197  1  0.79000000  0.77050000  0.77050000  1
  C  C198  1  0.42170000  0.76970000  0.76970000  1
  C  C199  1  0.48620000  0.76930000  0.76930000  1
  C  C200  1  0.54300000  0.74140000  0.74140000  1
  C  C201  1  0.60650000  0.76950000  0.76950000  1
  C  C202  1  0.60490000  0.74040000  0.74040000  1
  C  C203  1  0.01920000  0.93200000  0.93200000  1
  C  C204  1  0.48770000  0.79810000  0.79810000  1
  C  C205  1  0.98340000  0.96440000  0.96440000  1
  C  C206  1  0.54700000  0.79760000  0.79760000  1
  C  C207  1  0.66900000  0.77050000  0.77050000  1
  C  C208  1  0.96110000  0.23030000  0.23030000  1
  C  C209  1  0.02480000  0.23070000  0.23070000  1
  C  C210  1  0.02580000  0.25860000  0.25860000  1
  C  C211  1  0.14550000  0.23050000  0.23050000  1
  C  C212  1  0.08570000  0.25960000  0.25960000  1
  C  C213  1  0.88320000  0.06800000  0.06800000  1
  C  C214  1  0.08390000  0.20190000  0.20190000  1
  C  C215  1  0.91220000  0.03560000  0.03560000  1
  C  C216  1  0.14220000  0.20240000  0.20240000  1
  C  C217  1  0.21000000  0.22950000  0.22950000  1
  C  C218  1  0.57830000  0.23030000  0.23030000  1
  C  C219  1  0.51380000  0.23070000  0.23070000  1
  C  C220  1  0.45700000  0.25860000  0.25860000  1
  C  C221  1  0.39350000  0.23050000  0.23050000  1
  C  C222  1  0.39510000  0.25960000  0.25960000  1
  C  C223  1  0.98080000  0.06800000  0.06800000  1
  C  C224  1  0.51230000  0.20190000  0.20190000  1
  C  C225  1  0.01660000  0.03560000  0.03560000  1
  C  C226  1  0.45300000  0.20240000  0.20240000  1
  C  C227  1  0.33100000  0.22950000  0.22950000  1
  C  C228  1  0.12230000  0.87770000  0.87770000  1
  C  C229  1  0.08630000  0.91370000  0.91370000  1
  C  C230  1  0.01820000  0.98180000  0.98180000  1
  C  C231  1  0.87770000  0.12230000  0.12230000  1
  C  C232  1  0.91370000  0.08630000  0.08630000  1
  C  C233  1  0.98180000  0.01820000  0.01820000  1
  H  H234  1  0.30070000  0.98110000  0.63390000  1
  H  H235  1  0.30650000  0.96140000  0.77580000  1
  H  H236  1  0.34430000  0.03270000  0.74730000  1
  H  H237  1  0.62200000  0.10170000  0.45590000  1
  H  H238  1  0.50820000  0.25000000  0.42900000  1
  H  H239  1  0.33960000  0.05130000  0.60450000  1
  H  H240  1  0.54710000  0.08560000  0.53680000  1
  H  H241  1  0.43490000  0.23370000  0.51110000  1
  H  H242  1  0.42670000  0.21290000  0.60390000  1
  H  H243  1  0.43230000  0.08100000  0.58400000  1
  H  H244  1  0.31680000  0.12480000  0.71720000  1
  H  H245  1  0.75120000  0.68920000  0.87580000  1
  H  H246  1  0.78830000  0.66170000  0.82910000  1
  H  H247  1  0.82530000  0.68560000  0.84520000  1
  H  H248  1  0.08430000  0.63390000  0.98110000  1
  H  H249  1  0.95630000  0.77580000  0.96140000  1
  H  H250  1  0.87570000  0.74730000  0.03270000  1
  H  H251  1  0.82040000  0.45590000  0.10170000  1
  H  H252  1  0.81280000  0.42900000  0.25000000  1
  H  H253  1  0.00460000  0.60450000  0.05130000  1
  H  H254  1  0.83050000  0.53680000  0.08560000  1
  H  H255  1  0.82030000  0.51110000  0.23370000  1
  H  H256  1  0.75650000  0.60390000  0.21290000  1
  H  H257  1  0.90270000  0.58400000  0.08100000  1
  H  H258  1  0.84120000  0.71720000  0.12480000  1
  H  H259  1  0.68380000  0.87580000  0.68920000  1
  H  H260  1  0.72090000  0.82910000  0.66170000  1
  H  H261  1  0.64390000  0.84520000  0.68560000  1
  H  H262  1  0.69930000  0.36610000  0.01890000  1
  H  H263  1  0.69350000  0.22420000  0.03860000  1
  H  H264  1  0.65570000  0.25270000  0.96730000  1
  H  H265  1  0.37800000  0.54410000  0.89830000  1
  H  H266  1  0.49180000  0.57100000  0.75000000  1
  H  H267  1  0.66040000  0.39550000  0.94870000  1
  H  H268  1  0.45290000  0.46320000  0.91440000  1
  H  H269  1  0.56510000  0.48890000  0.76630000  1
  H  H270  1  0.57330000  0.39610000  0.78710000  1
  H  H271  1  0.56770000  0.41600000  0.91900000  1
  H  H272  1  0.68320000  0.28280000  0.87520000  1
  H  H273  1  0.91570000  0.01890000  0.36610000  1
  H  H274  1  0.04370000  0.03860000  0.22420000  1
  H  H275  1  0.12430000  0.96730000  0.25270000  1
  H  H276  1  0.17960000  0.89830000  0.54410000  1
  H  H277  1  0.18720000  0.75000000  0.57100000  1
  H  H278  1  0.99540000  0.94870000  0.39550000  1
  H  H279  1  0.16950000  0.91440000  0.46320000  1
  H  H280  1  0.17970000  0.76630000  0.48890000  1
  H  H281  1  0.24350000  0.78710000  0.39610000  1
  H  H282  1  0.09730000  0.91900000  0.41600000  1
  H  H283  1  0.15880000  0.87520000  0.28280000  1
  H  H284  1  0.69930000  0.01890000  0.36610000  1
  H  H285  1  0.69350000  0.03860000  0.22420000  1
  H  H286  1  0.65570000  0.96730000  0.25270000  1
  H  H287  1  0.37800000  0.89830000  0.54410000  1
  H  H288  1  0.49180000  0.75000000  0.57100000  1
  H  H289  1  0.66040000  0.94870000  0.39550000  1
  H  H290  1  0.45290000  0.91440000  0.46320000  1
  H  H291  1  0.56510000  0.76630000  0.48890000  1
  H  H292  1  0.57330000  0.78710000  0.39610000  1
  H  H293  1  0.56770000  0.91900000  0.41600000  1
  H  H294  1  0.68320000  0.87520000  0.28280000  1
  H  H295  1  0.24880000  0.31080000  0.12420000  1
  H  H296  1  0.21170000  0.33830000  0.17090000  1
  H  H297  1  0.17470000  0.31440000  0.15480000  1
  H  H298  1  0.91570000  0.36610000  0.01890000  1
  H  H299  1  0.04370000  0.22420000  0.03860000  1
  H  H300  1  0.12430000  0.25270000  0.96730000  1
  H  H301  1  0.17960000  0.54410000  0.89830000  1
  H  H302  1  0.18720000  0.57100000  0.75000000  1
  H  H303  1  0.99540000  0.39550000  0.94870000  1
  H  H304  1  0.16950000  0.46320000  0.91440000  1
  H  H305  1  0.17970000  0.48890000  0.76630000  1
  H  H306  1  0.24350000  0.39610000  0.78710000  1
  H  H307  1  0.09730000  0.41600000  0.91900000  1
  H  H308  1  0.15880000  0.28280000  0.87520000  1
  H  H309  1  0.31620000  0.12420000  0.31080000  1
  H  H310  1  0.27910000  0.17090000  0.33830000  1
  H  H311  1  0.35610000  0.15480000  0.31440000  1
  H  H312  1  0.30070000  0.63390000  0.98110000  1
  H  H313  1  0.30650000  0.77580000  0.96140000  1
  H  H314  1  0.34430000  0.74730000  0.03270000  1
  H  H315  1  0.62200000  0.45590000  0.10170000  1
  H  H316  1  0.50820000  0.42900000  0.25000000  1
  H  H317  1  0.33960000  0.60450000  0.05130000  1
  H  H318  1  0.54710000  0.53680000  0.08560000  1
  H  H319  1  0.43490000  0.51110000  0.23370000  1
  H  H320  1  0.42670000  0.60390000  0.21290000  1
  H  H321  1  0.43230000  0.58400000  0.08100000  1
  H  H322  1  0.31680000  0.71720000  0.12480000  1
  H  H323  1  0.08430000  0.98110000  0.63390000  1
  H  H324  1  0.95630000  0.96140000  0.77580000  1
  H  H325  1  0.87570000  0.03270000  0.74730000  1
  H  H326  1  0.82040000  0.10170000  0.45590000  1
  H  H327  1  0.81280000  0.25000000  0.42900000  1
  H  H328  1  0.00460000  0.05130000  0.60450000  1
  H  H329  1  0.83050000  0.08560000  0.53680000  1
  H  H330  1  0.82030000  0.23370000  0.51110000  1
  H  H331  1  0.75650000  0.21290000  0.60390000  1
  H  H332  1  0.90270000  0.08100000  0.58400000  1
  H  H333  1  0.84120000  0.12480000  0.71720000  1
  H  H334  1  0.01390000  0.72210000  0.72210000  1
  H  H335  1  0.91450000  0.72080000  0.72080000  1
  H  H336  1  0.16260000  0.92090000  0.92090000  1
  H  H337  1  0.91610000  0.81760000  0.81760000  1
  H  H338  1  0.11260000  0.97490000  0.97490000  1
  H  H339  1  0.81860000  0.81720000  0.81720000  1
  H  H340  1  0.54190000  0.72210000  0.72210000  1
  H  H341  1  0.64390000  0.72080000  0.72080000  1
  H  H342  1  0.99560000  0.92090000  0.92090000  1
  H  H343  1  0.44870000  0.81760000  0.81760000  1
  H  H344  1  0.93760000  0.97490000  0.97490000  1
  H  H345  1  0.54700000  0.81720000  0.81720000  1
  H  H346  1  0.98610000  0.27790000  0.27790000  1
  H  H347  1  0.08550000  0.27920000  0.27920000  1
  H  H348  1  0.83740000  0.07910000  0.07910000  1
  H  H349  1  0.08390000  0.18240000  0.18240000  1
  H  H350  1  0.88740000  0.02510000  0.02510000  1
  H  H351  1  0.18140000  0.18280000  0.18280000  1
  H  H352  1  0.45810000  0.27790000  0.27790000  1
  H  H353  1  0.35610000  0.27920000  0.27920000  1
  H  H354  1  0.00440000  0.07910000  0.07910000  1
  H  H355  1  0.55130000  0.18240000  0.18240000  1
  H  H356  1  0.06240000  0.02510000  0.02510000  1
  H  H357  1  0.45300000  0.18280000  0.18280000  1
  H  H358  1  0.21379000  0.16803000  0.29775000  1
  H  H359  1  0.67957000  0.70225000  0.83197000  1
  H  H360  1  0.32043000  0.29775000  0.16803000  1
  H  H361  1  0.78621000  0.83197000  0.70225000  1
  O  O362  1  0.25684000  0.91020000  0.69456000  1
  O  O363  1  0.67740000  0.15487000  0.37221000  1
  O  O364  1  0.27767000  0.88991000  0.77047000  1
  O  O365  1  0.60123000  0.23097000  0.35027000  1
  O  O366  1  0.15671000  0.73262000  0.80636000  1
  O  O367  1  0.13840000  0.69456000  0.91020000  1
  O  O368  1  0.79552000  0.37221000  0.15487000  1
  O  O369  1  0.06195000  0.77047000  0.88991000  1
  O  O370  1  0.81753000  0.35027000  0.23097000  1
  O  O371  1  0.30431000  0.80636000  0.73262000  1
  O  O372  1  0.74316000  0.30544000  0.08980000  1
  O  O373  1  0.32260000  0.62779000  0.84513000  1
  O  O374  1  0.72233000  0.22953000  0.11009000  1
  O  O375  1  0.39877000  0.64973000  0.76903000  1
  O  O376  1  0.84329000  0.19364000  0.26738000  1
  O  O377  1  0.86160000  0.08980000  0.30544000  1
  O  O378  1  0.20448000  0.84513000  0.62779000  1
  O  O379  1  0.93805000  0.11009000  0.22953000  1
  O  O380  1  0.18247000  0.76903000  0.64973000  1
  O  O381  1  0.69569000  0.26738000  0.19364000  1
  O  O382  1  0.74316000  0.08980000  0.30544000  1
  O  O383  1  0.32260000  0.84513000  0.62779000  1
  O  O384  1  0.72233000  0.11009000  0.22953000  1
  O  O385  1  0.39877000  0.76903000  0.64973000  1
  O  O386  1  0.84329000  0.26738000  0.19364000  1
  O  O387  1  0.86160000  0.30544000  0.08980000  1
  O  O388  1  0.20448000  0.62779000  0.84513000  1
  O  O389  1  0.93805000  0.22953000  0.11009000  1
  O  O390  1  0.18247000  0.64973000  0.76903000  1
  O  O391  1  0.69569000  0.19364000  0.26738000  1
  O  O392  1  0.25684000  0.69456000  0.91020000  1
  O  O393  1  0.67740000  0.37221000  0.15487000  1
  O  O394  1  0.27767000  0.77047000  0.88991000  1
  O  O395  1  0.60123000  0.35027000  0.23097000  1
  O  O396  1  0.15671000  0.80636000  0.73262000  1
  O  O397  1  0.13840000  0.91020000  0.69456000  1
  O  O398  1  0.79552000  0.15487000  0.37221000  1
  O  O399  1  0.06195000  0.88991000  0.77047000  1
  O  O400  1  0.81753000  0.23097000  0.35027000  1
  O  O401  1  0.30431000  0.73262000  0.80636000  1
  O  O402  1  0.09046000  0.74214000  0.74214000  1
  O  O403  1  0.08725000  0.86415000  0.86415000  1
  O  O404  1  0.03575000  0.79699000  0.79699000  1
  O  O405  1  0.26356000  0.67524000  0.67524000  1
  O  O406  1  0.42526000  0.74214000  0.74214000  1
  O  O407  1  0.18445000  0.86415000  0.86415000  1
  O  O408  1  0.37027000  0.79699000  0.79699000  1
  O  O409  1  0.38596000  0.67524000  0.67524000  1
  O  O410  1  0.90954000  0.25786000  0.25786000  1
  O  O411  1  0.91275000  0.13585000  0.13585000  1
  O  O412  1  0.96425000  0.20301000  0.20301000  1
  O  O413  1  0.73644000  0.32476000  0.32476000  1
  O  O414  1  0.57474000  0.25786000  0.25786000  1
  O  O415  1  0.81555000  0.13585000  0.13585000  1
  O  O416  1  0.62973000  0.20301000  0.20301000  1
  O  O417  1  0.61404000  0.32476000  0.32476000  1
  O  O418  1  0.27288000  0.76408000  0.69016000  1
  O  O419  1  0.18914000  0.84797000  0.77375000  1
  O  O420  1  0.27288000  0.69016000  0.76408000  1
  O  O421  1  0.18914000  0.77375000  0.84797000  1
  O  O422  1  0.72712000  0.30984000  0.23592000  1
  O  O423  1  0.81086000  0.22625000  0.15203000  1
  O  O424  1  0.72712000  0.23592000  0.30984000  1
  O  O425  1  0.81086000  0.15203000  0.22625000  1
  Zr  Zr426  1  0.11273000  0.81200000  0.81200000  1
  Zr  Zr427  1  0.19720000  0.72702000  0.72702000  1
  Zr  Zr428  1  0.26327000  0.81200000  0.81200000  1
  Zr  Zr429  1  0.34876000  0.72702000  0.72702000  1
  Zr  Zr430  1  0.88727000  0.18800000  0.18800000  1
  Zr  Zr431  1  0.80280000  0.27298000  0.27298000  1
  Zr  Zr432  1  0.73673000  0.18800000  0.18800000  1
  Zr  Zr433  1  0.65124000  0.27298000  0.27298000  1
  Zr  Zr434  1  0.23067000  0.84456000  0.69410000  1
  Zr  Zr435  1  0.23067000  0.69410000  0.84456000  1
  Zr  Zr436  1  0.76933000  0.30590000  0.15544000  1
  Zr  Zr437  1  0.76933000  0.15544000  0.30590000  1
