# generated using pymatgen
data_Zr6H68C125O32
_symmetry_space_group_name_H-M   'P 1'
_cell_length_a   23.15440000
_cell_length_b   28.72026460
_cell_length_c   28.72026460
_cell_angle_alpha   70.38687253
_cell_angle_beta   66.22774824
_cell_angle_gamma   66.22774824
_symmetry_Int_Tables_number   1
_chemical_formula_structural   Zr6H68C125O32
_chemical_formula_sum   'Zr12 H136 C250 O64'
_cell_volume   15649.88103696
_cell_formula_units_Z   2
loop_
 _symmetry_equiv_pos_site_id
 _symmetry_equiv_pos_as_xyz
  1  'x, y, z'
loop_
 _atom_site_type_symbol
 _atom_site_label
 _atom_site_symmetry_multiplicity
 _atom_site_fract_x
 _atom_site_fract_y
 _atom_site_fract_z
 _atom_site_occupancy
  C  C0  1  0.88470000  0.30530000  0.11590000  1
  C  C1  1  0.21970000  0.58710000  0.77710000  1
  C  C2  1  0.93390000  0.31780000  0.06380000  1
  C  C3  1  0.19710000  0.54040000  0.79540000  1
  C  C4  1  0.18910000  0.51260000  0.84580000  1
  C  C5  1  0.92190000  0.36740000  0.03320000  1
  C  C6  1  0.98980000  0.28060000  0.04540000  1
  C  C7  1  0.96410000  0.38000000  0.98600000  1
  C  C8  1  0.18240000  0.52620000  0.76200000  1
  C  C9  1  0.16740000  0.47000000  0.86360000  1
  C  C10  1  0.02120000  0.34160000  0.96600000  1
  C  C11  1  0.03480000  0.29090000  0.99610000  1
  C  C12  1  0.16180000  0.48180000  0.77880000  1
  C  C13  1  0.15420000  0.45370000  0.83070000  1
  C  C14  1  0.06910000  0.35200000  0.91400000  1
  C  C15  1  0.08830000  0.39640000  0.89680000  1
  C  C16  1  0.13440000  0.40680000  0.84700000  1
  C  C17  1  0.15630000  0.37350000  0.81410000  1
  C  C18  1  0.09490000  0.31730000  0.88250000  1
  C  C19  1  0.13600000  0.32840000  0.83120000  1
  C  C20  1  0.16370000  0.29270000  0.79730000  1
  C  C21  1  0.19040000  0.26450000  0.77030000  1
  C  C22  1  0.79120000  0.70580000  0.77240000  1
  C  C23  1  0.79550000  0.67280000  0.82240000  1
  C  C24  1  0.69410000  0.11590000  0.30530000  1
  C  C25  1  0.41610000  0.77710000  0.58710000  1
  C  C26  1  0.68450000  0.06380000  0.31780000  1
  C  C27  1  0.46710000  0.79540000  0.54040000  1
  C  C28  1  0.45250000  0.84583333  0.51256667  1
  C  C29  1  0.67750000  0.03320000  0.36740000  1
  C  C30  1  0.68420000  0.04540000  0.28060000  1
  C  C31  1  0.66990000  0.98600000  0.38000000  1
  C  C32  1  0.52940000  0.76200000  0.52620000  1
  C  C33  1  0.49900000  0.86360000  0.47000000  1
  C  C34  1  0.67120000  0.96600000  0.34160000  1
  C  C35  1  0.67820000  0.99610000  0.29090000  1
  C  C36  1  0.57760000  0.77880000  0.48180000  1
  C  C37  1  0.56140000  0.83070000  0.45370000  1
  C  C38  1  0.66490000  0.91400000  0.35200000  1
  C  C39  1  0.61850000  0.89680000  0.39640000  1
  C  C40  1  0.61180000  0.84700000  0.40680000  1
  C  C41  1  0.65610000  0.81410000  0.37350000  1
  C  C42  1  0.70530000  0.88250000  0.31730000  1
  C  C43  1  0.70440000  0.83120000  0.32840000  1
  C  C44  1  0.74630000  0.79730000  0.29270000  1
  C  C45  1  0.77480000  0.77030000  0.26450000  1
  C  C46  1  0.73060000  0.77240000  0.70580000  1
  C  C47  1  0.70930000  0.82240000  0.67280000  1
  C  C48  1  0.11530000  0.88410000  0.69470000  1
  C  C49  1  0.78030000  0.22290000  0.41290000  1
  C  C50  1  0.06610000  0.93620000  0.68220000  1
  C  C51  1  0.80290000  0.20460000  0.45960000  1
  C  C52  1  0.81090000  0.15420000  0.48740000  1
  C  C53  1  0.07810000  0.96680000  0.63260000  1
  C  C54  1  0.01020000  0.95460000  0.71940000  1
  C  C55  1  0.03590000  0.01400000  0.62000000  1
  C  C56  1  0.81760000  0.23800000  0.47380000  1
  C  C57  1  0.83260000  0.13640000  0.53000000  1
  C  C58  1  0.97880000  0.03400000  0.65840000  1
  C  C59  1  0.96520000  0.00390000  0.70910000  1
  C  C60  1  0.83820000  0.22120000  0.51820000  1
  C  C61  1  0.84580000  0.16930000  0.54630000  1
  C  C62  1  0.93090000  0.08600000  0.64800000  1
  C  C63  1  0.91170000  0.10320000  0.60360000  1
  C  C64  1  0.86560000  0.15300000  0.59320000  1
  C  C65  1  0.84370000  0.18590000  0.62650000  1
  C  C66  1  0.90510000  0.11750000  0.68270000  1
  C  C67  1  0.86400000  0.16880000  0.67160000  1
  C  C68  1  0.83630000  0.20270000  0.70730000  1
  C  C69  1  0.80960000  0.22970000  0.73550000  1
  C  C70  1  0.20880000  0.22760000  0.29420000  1
  C  C71  1  0.30590000  0.69470000  0.88410000  1
  C  C72  1  0.58390000  0.41290000  0.22290000  1
  C  C73  1  0.31550000  0.68220000  0.93620000  1
  C  C74  1  0.53290000  0.45960000  0.20460000  1
  C  C75  1  0.54750000  0.48743333  0.15416667  1
  C  C76  1  0.32250000  0.63260000  0.96680000  1
  C  C77  1  0.31580000  0.71940000  0.95460000  1
  C  C78  1  0.33010000  0.62000000  0.01400000  1
  C  C79  1  0.47060000  0.47380000  0.23800000  1
  C  C80  1  0.50100000  0.53000000  0.13640000  1
  C  C81  1  0.32880000  0.65840000  0.03400000  1
  C  C82  1  0.32180000  0.70910000  0.00390000  1
  C  C83  1  0.42240000  0.51820000  0.22120000  1
  C  C84  1  0.43860000  0.54630000  0.16930000  1
  C  C85  1  0.33510000  0.64800000  0.08600000  1
  C  C86  1  0.38150000  0.60360000  0.10320000  1
  C  C87  1  0.38820000  0.59320000  0.15300000  1
  C  C88  1  0.34390000  0.62650000  0.18590000  1
  C  C89  1  0.29470000  0.68270000  0.11750000  1
  C  C90  1  0.29560000  0.67160000  0.16880000  1
  C  C91  1  0.25370000  0.70730000  0.20270000  1
  C  C92  1  0.22520000  0.73550000  0.22970000  1
  C  C93  1  0.26940000  0.29420000  0.22760000  1
  C  C94  1  0.11530000  0.69470000  0.88410000  1
  C  C95  1  0.78030000  0.41290000  0.22290000  1
  C  C96  1  0.06610000  0.68220000  0.93620000  1
  C  C97  1  0.80290000  0.45960000  0.20460000  1
  C  C98  1  0.81090000  0.48743333  0.15416667  1
  C  C99  1  0.07810000  0.63260000  0.96680000  1
  C  C100  1  0.01020000  0.71940000  0.95460000  1
  C  C101  1  0.03590000  0.62000000  0.01400000  1
  C  C102  1  0.81760000  0.47380000  0.23800000  1
  C  C103  1  0.83260000  0.53000000  0.13640000  1
  C  C104  1  0.97880000  0.65840000  0.03400000  1
  C  C105  1  0.96520000  0.70910000  0.00390000  1
  C  C106  1  0.83820000  0.51820000  0.22120000  1
  C  C107  1  0.84580000  0.54630000  0.16930000  1
  C  C108  1  0.93090000  0.64800000  0.08600000  1
  C  C109  1  0.91170000  0.60360000  0.10320000  1
  C  C110  1  0.86560000  0.59320000  0.15300000  1
  C  C111  1  0.84370000  0.62650000  0.18590000  1
  C  C112  1  0.90510000  0.68270000  0.11750000  1
  C  C113  1  0.86400000  0.67160000  0.16880000  1
  C  C114  1  0.83630000  0.70730000  0.20270000  1
  C  C115  1  0.80960000  0.73550000  0.22970000  1
  C  C116  1  0.20880000  0.29420000  0.22760000  1
  C  C117  1  0.20450000  0.32720000  0.17760000  1
  C  C118  1  0.30590000  0.88410000  0.69470000  1
  C  C119  1  0.58390000  0.22290000  0.41290000  1
  C  C120  1  0.31550000  0.93620000  0.68220000  1
  C  C121  1  0.53290000  0.20460000  0.45960000  1
  C  C122  1  0.54750000  0.15420000  0.48740000  1
  C  C123  1  0.32250000  0.96680000  0.63260000  1
  C  C124  1  0.31580000  0.95460000  0.71940000  1
  C  C125  1  0.33010000  0.01400000  0.62000000  1
  C  C126  1  0.47060000  0.23800000  0.47380000  1
  C  C127  1  0.50100000  0.13640000  0.53000000  1
  C  C128  1  0.32880000  0.03400000  0.65840000  1
  C  C129  1  0.32180000  0.00390000  0.70910000  1
  C  C130  1  0.42240000  0.22120000  0.51820000  1
  C  C131  1  0.43860000  0.16930000  0.54630000  1
  C  C132  1  0.33510000  0.08600000  0.64800000  1
  C  C133  1  0.38150000  0.10320000  0.60360000  1
  C  C134  1  0.38820000  0.15300000  0.59320000  1
  C  C135  1  0.34390000  0.18590000  0.62650000  1
  C  C136  1  0.29470000  0.11750000  0.68270000  1
  C  C137  1  0.29560000  0.16880000  0.67160000  1
  C  C138  1  0.25370000  0.20270000  0.70730000  1
  C  C139  1  0.22520000  0.22970000  0.73550000  1
  C  C140  1  0.26940000  0.22760000  0.29420000  1
  C  C141  1  0.29070000  0.17760000  0.32720000  1
  C  C142  1  0.88470000  0.11590000  0.30530000  1
  C  C143  1  0.21970000  0.77710000  0.58710000  1
  C  C144  1  0.93390000  0.06380000  0.31780000  1
  C  C145  1  0.19710000  0.79540000  0.54040000  1
  C  C146  1  0.18910000  0.84583333  0.51256667  1
  C  C147  1  0.92190000  0.03320000  0.36740000  1
  C  C148  1  0.98980000  0.04540000  0.28060000  1
  C  C149  1  0.96410000  0.98600000  0.38000000  1
  C  C150  1  0.18240000  0.76200000  0.52620000  1
  C  C151  1  0.16740000  0.86360000  0.47000000  1
  C  C152  1  0.02120000  0.96600000  0.34160000  1
  C  C153  1  0.03480000  0.99610000  0.29090000  1
  C  C154  1  0.16180000  0.77880000  0.48180000  1
  C  C155  1  0.15420000  0.83070000  0.45370000  1
  C  C156  1  0.06910000  0.91400000  0.35200000  1
  C  C157  1  0.08830000  0.89680000  0.39640000  1
  C  C158  1  0.13440000  0.84700000  0.40680000  1
  C  C159  1  0.15630000  0.81410000  0.37350000  1
  C  C160  1  0.09490000  0.88250000  0.31730000  1
  C  C161  1  0.13600000  0.83120000  0.32840000  1
  C  C162  1  0.16370000  0.79730000  0.29270000  1
  C  C163  1  0.19040000  0.77030000  0.26450000  1
  C  C164  1  0.79120000  0.77240000  0.70580000  1
  C  C165  1  0.69410000  0.30530000  0.11590000  1
  C  C166  1  0.41610000  0.58710000  0.77710000  1
  C  C167  1  0.68450000  0.31780000  0.06380000  1
  C  C168  1  0.46710000  0.54040000  0.79540000  1
  C  C169  1  0.45250000  0.51260000  0.84580000  1
  C  C170  1  0.67750000  0.36740000  0.03320000  1
  C  C171  1  0.68420000  0.28060000  0.04540000  1
  C  C172  1  0.66990000  0.38000000  0.98600000  1
  C  C173  1  0.52940000  0.52620000  0.76200000  1
  C  C174  1  0.49900000  0.47000000  0.86360000  1
  C  C175  1  0.67120000  0.34160000  0.96600000  1
  C  C176  1  0.67820000  0.29090000  0.99610000  1
  C  C177  1  0.57760000  0.48180000  0.77880000  1
  C  C178  1  0.56140000  0.45370000  0.83070000  1
  C  C179  1  0.66490000  0.35200000  0.91400000  1
  C  C180  1  0.61850000  0.39640000  0.89680000  1
  C  C181  1  0.61180000  0.40680000  0.84700000  1
  C  C182  1  0.65610000  0.37350000  0.81410000  1
  C  C183  1  0.70530000  0.31730000  0.88250000  1
  C  C184  1  0.70440000  0.32840000  0.83120000  1
  C  C185  1  0.74630000  0.29270000  0.79730000  1
  C  C186  1  0.77480000  0.26450000  0.77030000  1
  C  C187  1  0.73060000  0.70580000  0.77240000  1
  C  C188  1  0.07360000  0.73520000  0.73520000  1
  C  C189  1  0.15010000  0.89910000  0.89910000  1
  C  C190  1  0.11910000  0.93220000  0.93220000  1
  C  C191  1  0.00990000  0.73550000  0.73550000  1
  C  C192  1  0.95080000  0.76440000  0.76440000  1
  C  C193  1  0.89090000  0.76420000  0.76420000  1
  C  C194  1  0.00840000  0.70620000  0.70620000  1
  C  C195  1  0.88870000  0.73540000  0.73540000  1
  C  C196  1  0.37950000  0.56930000  0.56930000  1
  C  C197  1  0.41440000  0.53480000  0.53480000  1
  C  C198  1  0.82790000  0.73360000  0.73360000  1
  C  C199  1  0.94770000  0.70690000  0.70690000  1
  C  C200  1  0.45600000  0.73520000  0.73520000  1
  C  C201  1  0.05170000  0.89910000  0.89910000  1
  C  C202  1  0.01650000  0.93220000  0.93220000  1
  C  C203  1  0.51910000  0.73550000  0.73550000  1
  C  C204  1  0.52040000  0.76440000  0.76440000  1
  C  C205  1  0.58070000  0.76420000  0.76420000  1
  C  C206  1  0.57920000  0.70620000  0.70620000  1
  C  C207  1  0.64050000  0.73540000  0.73540000  1
  C  C208  1  0.48190000  0.56930000  0.56930000  1
  C  C209  1  0.51600000  0.53480000  0.53480000  1
  C  C210  1  0.70490000  0.73360000  0.73360000  1
  C  C211  1  0.63850000  0.70690000  0.70690000  1
  C  C212  1  0.92640000  0.26480000  0.26480000  1
  C  C213  1  0.84990000  0.10090000  0.10090000  1
  C  C214  1  0.88090000  0.06780000  0.06780000  1
  C  C215  1  0.99010000  0.26450000  0.26450000  1
  C  C216  1  0.04920000  0.23560000  0.23560000  1
  C  C217  1  0.10910000  0.23580000  0.23580000  1
  C  C218  1  0.99160000  0.29380000  0.29380000  1
  C  C219  1  0.11130000  0.26460000  0.26460000  1
  C  C220  1  0.62050000  0.43070000  0.43070000  1
  C  C221  1  0.58560000  0.46520000  0.46520000  1
  C  C222  1  0.17210000  0.26640000  0.26640000  1
  C  C223  1  0.05230000  0.29310000  0.29310000  1
  C  C224  1  0.54400000  0.26480000  0.26480000  1
  C  C225  1  0.94830000  0.10090000  0.10090000  1
  C  C226  1  0.98350000  0.06780000  0.06780000  1
  C  C227  1  0.48090000  0.26450000  0.26450000  1
  C  C228  1  0.47960000  0.23560000  0.23560000  1
  C  C229  1  0.41930000  0.23580000  0.23580000  1
  C  C230  1  0.42080000  0.29380000  0.29380000  1
  C  C231  1  0.35950000  0.26460000  0.26460000  1
  C  C232  1  0.51810000  0.43070000  0.43070000  1
  C  C233  1  0.48400000  0.46520000  0.46520000  1
  C  C234  1  0.29510000  0.26640000  0.26640000  1
  C  C235  1  0.36150000  0.29310000  0.29310000  1
  C  C236  1  0.15550000  0.84450000  0.84450000  1
  C  C237  1  0.11800000  0.88200000  0.88200000  1
  C  C238  1  0.37680000  0.62320000  0.62320000  1
  C  C239  1  0.05010000  0.94990000  0.94990000  1
  C  C240  1  0.41330000  0.58670000  0.58670000  1
  C  C241  1  0.01510000  0.98490000  0.98490000  1
  C  C242  1  0.48190000  0.51810000  0.51810000  1
  C  C243  1  0.84450000  0.15550000  0.15550000  1
  C  C244  1  0.88200000  0.11800000  0.11800000  1
  C  C245  1  0.62320000  0.37680000  0.37680000  1
  C  C246  1  0.94990000  0.05010000  0.05010000  1
  C  C247  1  0.58670000  0.41330000  0.41330000  1
  C  C248  1  0.98490000  0.01510000  0.01510000  1
  C  C249  1  0.51810000  0.48190000  0.48190000  1
  H  H250  1  0.19880000  0.52290000  0.86850000  1
  H  H251  1  0.88320000  0.39300000  0.04580000  1
  H  H252  1  0.99880000  0.24720000  0.06580000  1
  H  H253  1  0.95510000  0.41400000  0.96700000  1
  H  H254  1  0.18560000  0.54580000  0.72840000  1
  H  H255  1  0.16170000  0.45240000  0.89800000  1
  H  H256  1  0.07290000  0.26480000  0.98360000  1
  H  H257  1  0.15340000  0.47080000  0.75580000  1
  H  H258  1  0.07050000  0.41990000  0.91850000  1
  H  H259  1  0.18460000  0.38050000  0.78050000  1
  H  H260  1  0.08530000  0.28610000  0.89490000  1
  H  H261  1  0.40980000  0.86850000  0.52290000  1
  H  H262  1  0.67800000  0.04580000  0.39300000  1
  H  H263  1  0.68820000  0.06580000  0.24720000  1
  H  H264  1  0.66390000  0.96700000  0.41400000  1
  H  H265  1  0.54020000  0.72840000  0.54580000  1
  H  H266  1  0.48790000  0.89800000  0.45240000  1
  H  H267  1  0.67870000  0.98360000  0.26480000  1
  H  H268  1  0.62000000  0.75580000  0.47080000  1
  H  H269  1  0.59110000  0.91850000  0.41990000  1
  H  H270  1  0.65440000  0.78050000  0.38050000  1
  H  H271  1  0.73370000  0.89490000  0.28610000  1
  H  H272  1  0.80120000  0.13150000  0.47710000  1
  H  H273  1  0.11680000  0.95420000  0.60700000  1
  H  H274  1  0.00120000  0.93420000  0.75280000  1
  H  H275  1  0.04490000  0.03300000  0.58600000  1
  H  H276  1  0.81440000  0.27160000  0.45420000  1
  H  H277  1  0.83830000  0.10200000  0.54760000  1
  H  H278  1  0.92710000  0.01640000  0.73520000  1
  H  H279  1  0.84660000  0.24420000  0.52920000  1
  H  H280  1  0.92950000  0.08150000  0.58010000  1
  H  H281  1  0.81540000  0.21950000  0.61950000  1
  H  H282  1  0.91470000  0.10510000  0.71390000  1
  H  H283  1  0.59020000  0.47710000  0.13150000  1
  H  H284  1  0.32200000  0.60700000  0.95420000  1
  H  H285  1  0.31180000  0.75280000  0.93420000  1
  H  H286  1  0.33610000  0.58600000  0.03300000  1
  H  H287  1  0.45980000  0.45420000  0.27160000  1
  H  H288  1  0.51210000  0.54760000  0.10200000  1
  H  H289  1  0.32130000  0.73520000  0.01640000  1
  H  H290  1  0.38000000  0.52920000  0.24420000  1
  H  H291  1  0.40890000  0.58010000  0.08150000  1
  H  H292  1  0.34560000  0.61950000  0.21950000  1
  H  H293  1  0.26630000  0.71390000  0.10510000  1
  H  H294  1  0.80120000  0.47710000  0.13150000  1
  H  H295  1  0.11680000  0.60700000  0.95420000  1
  H  H296  1  0.00120000  0.75280000  0.93420000  1
  H  H297  1  0.04490000  0.58600000  0.03300000  1
  H  H298  1  0.81440000  0.45420000  0.27160000  1
  H  H299  1  0.83830000  0.54760000  0.10200000  1
  H  H300  1  0.92710000  0.73520000  0.01640000  1
  H  H301  1  0.84660000  0.52920000  0.24420000  1
  H  H302  1  0.92950000  0.58010000  0.08150000  1
  H  H303  1  0.81540000  0.61950000  0.21950000  1
  H  H304  1  0.91470000  0.71390000  0.10510000  1
  H  H305  1  0.59020000  0.13150000  0.47710000  1
  H  H306  1  0.32200000  0.95420000  0.60700000  1
  H  H307  1  0.31180000  0.93420000  0.75280000  1
  H  H308  1  0.33610000  0.03300000  0.58600000  1
  H  H309  1  0.45980000  0.27160000  0.45420000  1
  H  H310  1  0.51210000  0.10200000  0.54760000  1
  H  H311  1  0.32130000  0.01640000  0.73520000  1
  H  H312  1  0.38000000  0.24420000  0.52920000  1
  H  H313  1  0.40890000  0.08150000  0.58010000  1
  H  H314  1  0.34560000  0.21950000  0.61950000  1
  H  H315  1  0.26630000  0.10510000  0.71390000  1
  H  H316  1  0.19880000  0.86850000  0.52290000  1
  H  H317  1  0.88320000  0.04580000  0.39300000  1
  H  H318  1  0.99880000  0.06580000  0.24720000  1
  H  H319  1  0.95510000  0.96700000  0.41400000  1
  H  H320  1  0.18560000  0.72840000  0.54580000  1
  H  H321  1  0.16170000  0.89800000  0.45240000  1
  H  H322  1  0.07290000  0.98360000  0.26480000  1
  H  H323  1  0.15340000  0.75580000  0.47080000  1
  H  H324  1  0.07050000  0.91850000  0.41990000  1
  H  H325  1  0.18460000  0.78050000  0.38050000  1
  H  H326  1  0.08530000  0.89490000  0.28610000  1
  H  H327  1  0.40980000  0.52290000  0.86850000  1
  H  H328  1  0.67800000  0.39300000  0.04580000  1
  H  H329  1  0.68820000  0.24720000  0.06580000  1
  H  H330  1  0.66390000  0.41400000  0.96700000  1
  H  H331  1  0.54020000  0.54580000  0.72840000  1
  H  H332  1  0.48790000  0.45240000  0.89800000  1
  H  H333  1  0.67870000  0.26480000  0.98360000  1
  H  H334  1  0.62000000  0.47080000  0.75580000  1
  H  H335  1  0.59110000  0.41990000  0.91850000  1
  H  H336  1  0.65440000  0.38050000  0.78050000  1
  H  H337  1  0.73370000  0.28610000  0.89490000  1
  H  H338  1  0.19630000  0.88760000  0.88760000  1
  H  H339  1  0.14370000  0.94300000  0.94300000  1
  H  H340  1  0.95060000  0.78430000  0.78430000  1
  H  H341  1  0.85140000  0.78400000  0.78400000  1
  H  H342  1  0.04780000  0.68630000  0.68630000  1
  H  H343  1  0.33330000  0.58050000  0.58050000  1
  H  H344  1  0.39110000  0.52330000  0.52330000  1
  H  H345  1  0.94740000  0.68720000  0.68720000  1
  H  H346  1  0.02850000  0.88760000  0.88760000  1
  H  H347  1  0.97030000  0.94300000  0.94300000  1
  H  H348  1  0.48080000  0.78430000  0.78430000  1
  H  H349  1  0.58060000  0.78400000  0.78400000  1
  H  H350  1  0.57960000  0.68630000  0.68630000  1
  H  H351  1  0.50570000  0.58050000  0.58050000  1
  H  H352  1  0.56230000  0.52330000  0.52330000  1
  H  H353  1  0.67820000  0.68720000  0.68720000  1
  H  H354  1  0.80370000  0.11240000  0.11240000  1
  H  H355  1  0.85630000  0.05700000  0.05700000  1
  H  H356  1  0.04940000  0.21570000  0.21570000  1
  H  H357  1  0.14860000  0.21600000  0.21600000  1
  H  H358  1  0.95220000  0.31370000  0.31370000  1
  H  H359  1  0.66670000  0.41950000  0.41950000  1
  H  H360  1  0.60890000  0.47670000  0.47670000  1
  H  H361  1  0.05260000  0.31280000  0.31280000  1
  H  H362  1  0.97150000  0.11240000  0.11240000  1
  H  H363  1  0.02970000  0.05700000  0.05700000  1
  H  H364  1  0.51920000  0.21570000  0.21570000  1
  H  H365  1  0.41940000  0.21600000  0.21600000  1
  H  H366  1  0.42040000  0.31370000  0.31370000  1
  H  H367  1  0.49430000  0.41950000  0.41950000  1
  H  H368  1  0.43770000  0.47670000  0.47670000  1
  H  H369  1  0.32180000  0.31280000  0.31280000  1
  H  H370  1  0.65679000  0.84489000  0.69397000  1
  H  H371  1  0.70993000  0.81632000  0.63534000  1
  H  H372  1  0.74440000  0.84537000  0.66311000  1
  H  H373  1  0.19117000  0.19266000  0.31924000  1
  H  H374  1  0.15135000  0.35399000  0.18187000  1
  H  H375  1  0.21944000  0.30203000  0.14873000  1
  H  H376  1  0.23932000  0.35157000  0.16283000  1
  H  H377  1  0.70307000  0.68076000  0.80734000  1
  H  H378  1  0.81270000  0.63031000  0.81977000  1
  H  H379  1  0.74461000  0.68226000  0.85292000  1
  H  H380  1  0.83257000  0.67985000  0.83389000  1
  H  H381  1  0.29693000  0.31924000  0.19266000  1
  H  H382  1  0.30251000  0.14527000  0.30707000  1
  H  H383  1  0.24937000  0.17385000  0.36569000  1
  H  H384  1  0.33699000  0.17431000  0.33483000  1
  H  H385  1  0.80883000  0.80734000  0.68076000  1
  O  O386  1  0.90368000  0.26234000  0.14470000  1
  O  O387  1  0.23914000  0.59518000  0.80874000  1
  O  O388  1  0.21772000  0.61492000  0.73304000  1
  O  O389  1  0.82752000  0.33850000  0.12466000  1
  O  O390  1  0.19101000  0.69899000  0.77099000  1
  O  O391  1  0.68928000  0.14470000  0.26234000  1
  O  O392  1  0.35694000  0.80874000  0.59518000  1
  O  O393  1  0.43432000  0.73304000  0.61492000  1
  O  O394  1  0.70932000  0.12466000  0.33850000  1
  O  O395  1  0.33901000  0.77099000  0.69899000  1
  O  O396  1  0.09632000  0.85530000  0.73766000  1
  O  O397  1  0.76086000  0.19126000  0.40482000  1
  O  O398  1  0.78228000  0.26696000  0.38508000  1
  O  O399  1  0.17248000  0.87534000  0.66150000  1
  O  O400  1  0.80899000  0.22901000  0.30101000  1
  O  O401  1  0.31072000  0.73766000  0.85530000  1
  O  O402  1  0.64306000  0.40482000  0.19126000  1
  O  O403  1  0.56568000  0.38508000  0.26696000  1
  O  O404  1  0.29068000  0.66150000  0.87534000  1
  O  O405  1  0.66099000  0.30101000  0.22901000  1
  O  O406  1  0.09632000  0.73766000  0.85530000  1
  O  O407  1  0.76086000  0.40482000  0.19126000  1
  O  O408  1  0.78228000  0.38508000  0.26696000  1
  O  O409  1  0.17248000  0.66150000  0.87534000  1
  O  O410  1  0.80899000  0.30101000  0.22901000  1
  O  O411  1  0.31072000  0.85530000  0.73766000  1
  O  O412  1  0.64306000  0.19126000  0.40482000  1
  O  O413  1  0.56568000  0.26696000  0.38508000  1
  O  O414  1  0.29068000  0.87534000  0.66150000  1
  O  O415  1  0.66099000  0.22901000  0.30101000  1
  O  O416  1  0.90368000  0.14470000  0.26234000  1
  O  O417  1  0.23914000  0.80874000  0.59518000  1
  O  O418  1  0.21772000  0.73304000  0.61492000  1
  O  O419  1  0.82752000  0.12466000  0.33850000  1
  O  O420  1  0.19101000  0.77099000  0.69899000  1
  O  O421  1  0.68928000  0.26234000  0.14470000  1
  O  O422  1  0.35694000  0.59518000  0.80874000  1
  O  O423  1  0.43432000  0.61492000  0.73304000  1
  O  O424  1  0.70932000  0.33850000  0.12466000  1
  O  O425  1  0.33901000  0.69899000  0.77099000  1
  O  O426  1  0.07029000  0.76291000  0.76291000  1
  O  O427  1  0.12530000  0.70740000  0.70740000  1
  O  O428  1  0.12077000  0.83063000  0.83063000  1
  O  O429  1  0.30646000  0.63864000  0.63864000  1
  O  O430  1  0.40389000  0.76291000  0.76291000  1
  O  O431  1  0.45990000  0.70740000  0.70740000  1
  O  O432  1  0.21797000  0.83063000  0.83063000  1
  O  O433  1  0.41626000  0.63864000  0.63864000  1
  O  O434  1  0.92971000  0.23709000  0.23709000  1
  O  O435  1  0.87470000  0.29260000  0.29260000  1
  O  O436  1  0.87923000  0.16937000  0.16937000  1
  O  O437  1  0.69354000  0.36136000  0.36136000  1
  O  O438  1  0.59611000  0.23709000  0.23709000  1
  O  O439  1  0.54010000  0.29260000  0.29260000  1
  O  O440  1  0.78203000  0.16937000  0.16937000  1
  O  O441  1  0.58374000  0.36136000  0.36136000  1
  O  O442  1  0.22200000  0.74060000  0.81540000  1
  O  O443  1  0.30780000  0.72870000  0.65570000  1
  O  O444  1  0.22200000  0.81540000  0.74060000  1
  O  O445  1  0.30780000  0.65570000  0.72870000  1
  O  O446  1  0.77800000  0.18460000  0.25940000  1
  O  O447  1  0.69220000  0.34430000  0.27130000  1
  O  O448  1  0.77800000  0.25940000  0.18460000  1
  O  O449  1  0.69220000  0.27130000  0.34430000  1
  Zr  Zr450  1  0.14683000  0.77810000  0.77810000  1
  Zr  Zr451  1  0.23247000  0.69188000  0.69188000  1
  Zr  Zr452  1  0.29697000  0.77810000  0.77810000  1
  Zr  Zr453  1  0.38377000  0.69188000  0.69188000  1
  Zr  Zr454  1  0.85317000  0.22190000  0.22190000  1
  Zr  Zr455  1  0.76753000  0.30812000  0.30812000  1
  Zr  Zr456  1  0.70303000  0.22190000  0.22190000  1
  Zr  Zr457  1  0.61623000  0.30812000  0.30812000  1
  Zr  Zr458  1  0.26512000  0.66059000  0.80917000  1
  Zr  Zr459  1  0.26512000  0.80917000  0.66059000  1
  Zr  Zr460  1  0.73488000  0.19083000  0.33941000  1
  Zr  Zr461  1  0.73488000  0.33941000  0.19083000  1
