# generated using pymatgen
data_Zr3H26C52NO14
_symmetry_space_group_name_H-M   'P 1'
_cell_length_a   20.63100000
_cell_length_b   23.56600000
_cell_length_c   33.31200000
_cell_angle_alpha   90.00000000
_cell_angle_beta   90.00000000
_cell_angle_gamma   90.00000000
_symmetry_Int_Tables_number   1
_chemical_formula_structural   Zr3H26C52NO14
_chemical_formula_sum   'Zr12 H104 C208 N4 O56'
_cell_volume   16195.96614355
_cell_formula_units_Z   4
loop_
 _symmetry_equiv_pos_site_id
 _symmetry_equiv_pos_as_xyz
  1  'x, y, z'
loop_
 _atom_site_type_symbol
 _atom_site_label
 _atom_site_symmetry_multiplicity
 _atom_site_fract_x
 _atom_site_fract_y
 _atom_site_fract_z
 _atom_site_occupancy
  Zr  Zr0  1  0.50000000  0.50000000  0.07415000  1
  Zr  Zr1  1  0.50000000  0.00000000  0.57415000  1
  Zr  Zr2  1  0.50000000  0.50000000  0.92585000  1
  Zr  Zr3  1  0.50000000  0.00000000  0.42585000  1
  Zr  Zr4  1  0.41525000  0.42432000  0.00000000  1
  Zr  Zr5  1  0.41525000  0.92432000  0.50000000  1
  Zr  Zr6  1  0.41525000  0.57568000  0.00000000  1
  Zr  Zr7  1  0.41525000  0.07568000  0.50000000  1
  Zr  Zr8  1  0.58475000  0.57568000  0.00000000  1
  Zr  Zr9  1  0.58475000  0.07568000  0.50000000  1
  Zr  Zr10  1  0.58475000  0.42432000  0.00000000  1
  Zr  Zr11  1  0.58475000  0.92432000  0.50000000  1
  H  H12  1  0.58090000  0.60790000  0.17440000  1
  H  H13  1  0.70750000  0.65800000  0.09310000  1
  H  H14  1  0.63900000  0.65210000  0.22400000  1
  H  H15  1  0.76020000  0.71580000  0.14100000  1
  H  H16  1  0.83160000  0.70060000  0.20100000  1
  H  H17  1  0.58090000  0.10790000  0.67440000  1
  H  H18  1  0.70750000  0.15800000  0.59310000  1
  H  H19  1  0.63900000  0.15210000  0.72400000  1
  H  H20  1  0.76020000  0.21580000  0.64100000  1
  H  H21  1  0.83160000  0.20060000  0.70100000  1
  H  H22  1  0.58090000  0.39210000  0.82560000  1
  H  H23  1  0.70750000  0.34200000  0.90690000  1
  H  H24  1  0.63900000  0.34790000  0.77600000  1
  H  H25  1  0.76020000  0.28420000  0.85900000  1
  H  H26  1  0.83160000  0.29940000  0.79900000  1
  H  H27  1  0.58090000  0.89210000  0.32560000  1
  H  H28  1  0.70750000  0.84200000  0.40690000  1
  H  H29  1  0.63900000  0.84790000  0.27600000  1
  H  H30  1  0.76020000  0.78420000  0.35900000  1
  H  H31  1  0.83160000  0.79940000  0.29900000  1
  H  H32  1  0.41910000  0.39210000  0.17440000  1
  H  H33  1  0.29250000  0.34200000  0.09310000  1
  H  H34  1  0.36100000  0.34790000  0.22400000  1
  H  H35  1  0.23980000  0.28420000  0.14100000  1
  H  H36  1  0.16840000  0.29940000  0.20100000  1
  H  H37  1  0.41910000  0.89210000  0.67440000  1
  H  H38  1  0.29250000  0.84200000  0.59310000  1
  H  H39  1  0.36100000  0.84790000  0.72400000  1
  H  H40  1  0.23980000  0.78420000  0.64100000  1
  H  H41  1  0.16840000  0.79940000  0.70100000  1
  H  H42  1  0.41910000  0.60790000  0.82560000  1
  H  H43  1  0.29250000  0.65800000  0.90690000  1
  H  H44  1  0.36100000  0.65210000  0.77600000  1
  H  H45  1  0.23980000  0.71580000  0.85900000  1
  H  H46  1  0.16840000  0.70060000  0.79900000  1
  H  H47  1  0.41910000  0.10790000  0.32560000  1
  H  H48  1  0.29250000  0.15800000  0.40690000  1
  H  H49  1  0.36100000  0.15210000  0.27600000  1
  H  H50  1  0.23980000  0.21580000  0.35900000  1
  H  H51  1  0.16840000  0.20060000  0.29900000  1
  H  H52  1  0.41910000  0.39210000  0.82560000  1
  H  H53  1  0.29250000  0.34200000  0.90690000  1
  H  H54  1  0.36100000  0.34790000  0.77600000  1
  H  H55  1  0.23980000  0.28420000  0.85900000  1
  H  H56  1  0.16840000  0.29940000  0.79900000  1
  H  H57  1  0.41910000  0.89210000  0.32560000  1
  H  H58  1  0.29250000  0.84200000  0.40690000  1
  H  H59  1  0.36100000  0.84790000  0.27600000  1
  H  H60  1  0.23980000  0.78420000  0.35900000  1
  H  H61  1  0.16840000  0.79940000  0.29900000  1
  H  H62  1  0.41910000  0.60790000  0.17440000  1
  H  H63  1  0.29250000  0.65800000  0.09310000  1
  H  H64  1  0.36100000  0.65210000  0.22400000  1
  H  H65  1  0.23980000  0.71580000  0.14100000  1
  H  H66  1  0.16840000  0.70060000  0.20100000  1
  H  H67  1  0.41910000  0.10790000  0.67440000  1
  H  H68  1  0.29250000  0.15800000  0.59310000  1
  H  H69  1  0.36100000  0.15210000  0.72400000  1
  H  H70  1  0.23980000  0.21580000  0.64100000  1
  H  H71  1  0.16840000  0.20060000  0.70100000  1
  H  H72  1  0.58090000  0.60790000  0.82560000  1
  H  H73  1  0.70750000  0.65800000  0.90690000  1
  H  H74  1  0.63900000  0.65210000  0.77600000  1
  H  H75  1  0.76020000  0.71580000  0.85900000  1
  H  H76  1  0.83160000  0.70060000  0.79900000  1
  H  H77  1  0.58090000  0.10790000  0.32560000  1
  H  H78  1  0.70750000  0.15800000  0.40690000  1
  H  H79  1  0.63900000  0.15210000  0.27600000  1
  H  H80  1  0.76020000  0.21580000  0.35900000  1
  H  H81  1  0.83160000  0.20060000  0.29900000  1
  H  H82  1  0.58090000  0.39210000  0.17440000  1
  H  H83  1  0.70750000  0.34200000  0.09310000  1
  H  H84  1  0.63900000  0.34790000  0.22400000  1
  H  H85  1  0.76020000  0.28420000  0.14100000  1
  H  H86  1  0.83160000  0.29940000  0.20100000  1
  H  H87  1  0.58090000  0.89210000  0.67440000  1
  H  H88  1  0.70750000  0.84200000  0.59310000  1
  H  H89  1  0.63900000  0.84790000  0.72400000  1
  H  H90  1  0.76020000  0.78420000  0.64100000  1
  H  H91  1  0.83160000  0.79940000  0.70100000  1
  H  H92  1  0.40630000  0.73430000  0.50000000  1
  H  H93  1  0.40630000  0.26570000  0.50000000  1
  H  H94  1  0.59370000  0.76570000  0.00000000  1
  H  H95  1  0.59370000  0.23430000  0.00000000  1
  H  H96  1  0.66410000  0.75000000  0.25000000  1
  H  H97  1  0.66410000  0.25000000  0.75000000  1
  H  H98  1  0.33590000  0.25000000  0.25000000  1
  H  H99  1  0.33590000  0.75000000  0.75000000  1
  H  H100  1  0.33590000  0.25000000  0.75000000  1
  H  H101  1  0.33590000  0.75000000  0.25000000  1
  H  H102  1  0.66410000  0.75000000  0.75000000  1
  H  H103  1  0.66410000  0.25000000  0.25000000  1
  H  H104  1  0.34067000  0.63580000  0.50000000  1
  H  H105  1  0.34067000  0.36420000  0.50000000  1
  H  H106  1  0.54952000  0.64317000  0.50000000  1
  H  H107  1  0.55108000  0.54405000  0.50000000  1
  H  H108  1  0.54952000  0.35683000  0.50000000  1
  H  H109  1  0.55108000  0.45595000  0.50000000  1
  H  H110  1  0.65933000  0.86420000  0.00000000  1
  H  H111  1  0.45048000  0.85683000  0.00000000  1
  H  H112  1  0.44892000  0.95595000  0.00000000  1
  H  H113  1  0.65933000  0.13580000  0.00000000  1
  H  H114  1  0.45048000  0.14317000  0.00000000  1
  H  H115  1  0.44892000  0.04405000  0.00000000  1
  C  C116  1  0.60460000  0.59620000  0.09647000  1
  C  C117  1  0.63990000  0.62860000  0.12817000  1
  C  C118  1  0.61850000  0.62770000  0.16790000  1
  C  C119  1  0.69210000  0.65870000  0.11930000  1
  C  C120  1  0.65210000  0.65540000  0.19740000  1
  C  C121  1  0.72600000  0.69220000  0.14830000  1
  C  C122  1  0.70520000  0.68800000  0.18800000  1
  C  C123  1  0.74100000  0.72120000  0.22000000  1
  C  C124  1  0.80870000  0.72060000  0.22040000  1
  C  C125  1  0.60460000  0.09620000  0.59647000  1
  C  C126  1  0.63990000  0.12860000  0.62817000  1
  C  C127  1  0.61850000  0.12770000  0.66790000  1
  C  C128  1  0.69210000  0.15870000  0.61930000  1
  C  C129  1  0.65210000  0.15540000  0.69740000  1
  C  C130  1  0.72600000  0.19220000  0.64830000  1
  C  C131  1  0.70520000  0.18800000  0.68800000  1
  C  C132  1  0.74100000  0.22120000  0.72000000  1
  C  C133  1  0.80870000  0.22060000  0.72040000  1
  C  C134  1  0.60460000  0.40380000  0.90353000  1
  C  C135  1  0.63990000  0.37140000  0.87183000  1
  C  C136  1  0.61850000  0.37230000  0.83210000  1
  C  C137  1  0.69210000  0.34130000  0.88070000  1
  C  C138  1  0.65210000  0.34460000  0.80260000  1
  C  C139  1  0.72600000  0.30780000  0.85170000  1
  C  C140  1  0.70520000  0.31200000  0.81200000  1
  C  C141  1  0.74100000  0.27880000  0.78000000  1
  C  C142  1  0.80870000  0.27940000  0.77960000  1
  C  C143  1  0.60460000  0.90380000  0.40353000  1
  C  C144  1  0.63990000  0.87140000  0.37183000  1
  C  C145  1  0.61850000  0.87230000  0.33210000  1
  C  C146  1  0.69210000  0.84130000  0.38070000  1
  C  C147  1  0.65210000  0.84460000  0.30260000  1
  C  C148  1  0.72600000  0.80780000  0.35170000  1
  C  C149  1  0.70520000  0.81200000  0.31200000  1
  C  C150  1  0.74100000  0.77880000  0.28000000  1
  C  C151  1  0.80870000  0.77940000  0.27960000  1
  C  C152  1  0.39540000  0.40380000  0.09647000  1
  C  C153  1  0.36010000  0.37140000  0.12817000  1
  C  C154  1  0.38150000  0.37230000  0.16790000  1
  C  C155  1  0.30790000  0.34130000  0.11930000  1
  C  C156  1  0.34790000  0.34460000  0.19740000  1
  C  C157  1  0.27400000  0.30780000  0.14830000  1
  C  C158  1  0.29480000  0.31200000  0.18800000  1
  C  C159  1  0.25900000  0.27880000  0.22000000  1
  C  C160  1  0.19130000  0.27940000  0.22040000  1
  C  C161  1  0.39540000  0.90380000  0.59647000  1
  C  C162  1  0.36010000  0.87140000  0.62817000  1
  C  C163  1  0.38150000  0.87230000  0.66790000  1
  C  C164  1  0.30790000  0.84130000  0.61930000  1
  C  C165  1  0.34790000  0.84460000  0.69740000  1
  C  C166  1  0.27400000  0.80780000  0.64830000  1
  C  C167  1  0.29480000  0.81200000  0.68800000  1
  C  C168  1  0.25900000  0.77880000  0.72000000  1
  C  C169  1  0.19130000  0.77940000  0.72040000  1
  C  C170  1  0.39540000  0.59620000  0.90353000  1
  C  C171  1  0.36010000  0.62860000  0.87183000  1
  C  C172  1  0.38150000  0.62770000  0.83210000  1
  C  C173  1  0.30790000  0.65870000  0.88070000  1
  C  C174  1  0.34790000  0.65540000  0.80260000  1
  C  C175  1  0.27400000  0.69220000  0.85170000  1
  C  C176  1  0.29480000  0.68800000  0.81200000  1
  C  C177  1  0.25900000  0.72120000  0.78000000  1
  C  C178  1  0.19130000  0.72060000  0.77960000  1
  C  C179  1  0.39540000  0.09620000  0.40353000  1
  C  C180  1  0.36010000  0.12860000  0.37183000  1
  C  C181  1  0.38150000  0.12770000  0.33210000  1
  C  C182  1  0.30790000  0.15870000  0.38070000  1
  C  C183  1  0.34790000  0.15540000  0.30260000  1
  C  C184  1  0.27400000  0.19220000  0.35170000  1
  C  C185  1  0.29480000  0.18800000  0.31200000  1
  C  C186  1  0.25900000  0.22120000  0.28000000  1
  C  C187  1  0.19130000  0.22060000  0.27960000  1
  C  C188  1  0.39540000  0.40380000  0.90353000  1
  C  C189  1  0.36010000  0.37140000  0.87183000  1
  C  C190  1  0.38150000  0.37230000  0.83210000  1
  C  C191  1  0.30790000  0.34130000  0.88070000  1
  C  C192  1  0.34790000  0.34460000  0.80260000  1
  C  C193  1  0.27400000  0.30780000  0.85170000  1
  C  C194  1  0.29480000  0.31200000  0.81200000  1
  C  C195  1  0.25900000  0.27880000  0.78000000  1
  C  C196  1  0.19130000  0.27940000  0.77960000  1
  C  C197  1  0.39540000  0.90380000  0.40353000  1
  C  C198  1  0.36010000  0.87140000  0.37183000  1
  C  C199  1  0.38150000  0.87230000  0.33210000  1
  C  C200  1  0.30790000  0.84130000  0.38070000  1
  C  C201  1  0.34790000  0.84460000  0.30260000  1
  C  C202  1  0.27400000  0.80780000  0.35170000  1
  C  C203  1  0.29480000  0.81200000  0.31200000  1
  C  C204  1  0.25900000  0.77880000  0.28000000  1
  C  C205  1  0.19130000  0.77940000  0.27960000  1
  C  C206  1  0.39540000  0.59620000  0.09647000  1
  C  C207  1  0.36010000  0.62860000  0.12817000  1
  C  C208  1  0.38150000  0.62770000  0.16790000  1
  C  C209  1  0.30790000  0.65870000  0.11930000  1
  C  C210  1  0.34790000  0.65540000  0.19740000  1
  C  C211  1  0.27400000  0.69220000  0.14830000  1
  C  C212  1  0.29480000  0.68800000  0.18800000  1
  C  C213  1  0.25900000  0.72120000  0.22000000  1
  C  C214  1  0.19130000  0.72060000  0.22040000  1
  C  C215  1  0.39540000  0.09620000  0.59647000  1
  C  C216  1  0.36010000  0.12860000  0.62817000  1
  C  C217  1  0.38150000  0.12770000  0.66790000  1
  C  C218  1  0.30790000  0.15870000  0.61930000  1
  C  C219  1  0.34790000  0.15540000  0.69740000  1
  C  C220  1  0.27400000  0.19220000  0.64830000  1
  C  C221  1  0.29480000  0.18800000  0.68800000  1
  C  C222  1  0.25900000  0.22120000  0.72000000  1
  C  C223  1  0.19130000  0.22060000  0.72040000  1
  C  C224  1  0.60460000  0.59620000  0.90353000  1
  C  C225  1  0.63990000  0.62860000  0.87183000  1
  C  C226  1  0.61850000  0.62770000  0.83210000  1
  C  C227  1  0.69210000  0.65870000  0.88070000  1
  C  C228  1  0.65210000  0.65540000  0.80260000  1
  C  C229  1  0.72600000  0.69220000  0.85170000  1
  C  C230  1  0.70520000  0.68800000  0.81200000  1
  C  C231  1  0.74100000  0.72120000  0.78000000  1
  C  C232  1  0.80870000  0.72060000  0.77960000  1
  C  C233  1  0.60460000  0.09620000  0.40353000  1
  C  C234  1  0.63990000  0.12860000  0.37183000  1
  C  C235  1  0.61850000  0.12770000  0.33210000  1
  C  C236  1  0.69210000  0.15870000  0.38070000  1
  C  C237  1  0.65210000  0.15540000  0.30260000  1
  C  C238  1  0.72600000  0.19220000  0.35170000  1
  C  C239  1  0.70520000  0.18800000  0.31200000  1
  C  C240  1  0.74100000  0.22120000  0.28000000  1
  C  C241  1  0.80870000  0.22060000  0.27960000  1
  C  C242  1  0.60460000  0.40380000  0.09647000  1
  C  C243  1  0.63990000  0.37140000  0.12817000  1
  C  C244  1  0.61850000  0.37230000  0.16790000  1
  C  C245  1  0.69210000  0.34130000  0.11930000  1
  C  C246  1  0.65210000  0.34460000  0.19740000  1
  C  C247  1  0.72600000  0.30780000  0.14830000  1
  C  C248  1  0.70520000  0.31200000  0.18800000  1
  C  C249  1  0.74100000  0.27880000  0.22000000  1
  C  C250  1  0.80870000  0.27940000  0.22040000  1
  C  C251  1  0.60460000  0.90380000  0.59647000  1
  C  C252  1  0.63990000  0.87140000  0.62817000  1
  C  C253  1  0.61850000  0.87230000  0.66790000  1
  C  C254  1  0.69210000  0.84130000  0.61930000  1
  C  C255  1  0.65210000  0.84460000  0.69740000  1
  C  C256  1  0.72600000  0.80780000  0.64830000  1
  C  C257  1  0.70520000  0.81200000  0.68800000  1
  C  C258  1  0.74100000  0.77880000  0.72000000  1
  C  C259  1  0.80870000  0.77940000  0.72040000  1
  C  C260  1  0.44560000  0.71510000  0.50000000  1
  C  C261  1  0.44440000  0.65410000  0.50000000  1
  C  C262  1  0.39200000  0.61790000  0.50000000  1
  C  C263  1  0.44760000  0.52720000  0.50000000  1
  C  C264  1  0.44560000  0.28490000  0.50000000  1
  C  C265  1  0.44440000  0.34590000  0.50000000  1
  C  C266  1  0.39200000  0.38210000  0.50000000  1
  C  C267  1  0.44760000  0.47280000  0.50000000  1
  C  C268  1  0.55440000  0.78490000  0.00000000  1
  C  C269  1  0.55560000  0.84590000  0.00000000  1
  C  C270  1  0.60800000  0.88210000  0.00000000  1
  C  C271  1  0.55240000  0.97280000  0.00000000  1
  C  C272  1  0.55440000  0.21510000  0.00000000  1
  C  C273  1  0.55560000  0.15410000  0.00000000  1
  C  C274  1  0.60800000  0.11790000  0.00000000  1
  C  C275  1  0.55240000  0.02720000  0.00000000  1
  C  C276  1  0.50000000  0.30790000  0.00000000  1
  C  C277  1  0.50000000  0.24580000  0.00000000  1
  C  C278  1  0.50000000  0.12170000  0.00000000  1
  C  C279  1  0.50000000  0.06250000  0.00000000  1
  C  C280  1  0.50000000  0.80790000  0.50000000  1
  C  C281  1  0.50000000  0.74580000  0.50000000  1
  C  C282  1  0.50000000  0.62170000  0.50000000  1
  C  C283  1  0.50000000  0.56250000  0.50000000  1
  C  C284  1  0.50000000  0.69210000  0.00000000  1
  C  C285  1  0.50000000  0.75420000  0.00000000  1
  C  C286  1  0.50000000  0.87830000  0.00000000  1
  C  C287  1  0.50000000  0.93750000  0.00000000  1
  C  C288  1  0.50000000  0.19210000  0.50000000  1
  C  C289  1  0.50000000  0.25420000  0.50000000  1
  C  C290  1  0.50000000  0.37830000  0.50000000  1
  C  C291  1  0.50000000  0.43750000  0.50000000  1
  C  C292  1  0.70910000  0.75000000  0.25000000  1
  C  C293  1  0.84100000  0.75000000  0.25000000  1
  C  C294  1  0.90930000  0.75000000  0.25000000  1
  C  C295  1  0.96420000  0.75000000  0.25000000  1
  C  C296  1  0.70910000  0.25000000  0.75000000  1
  C  C297  1  0.84100000  0.25000000  0.75000000  1
  C  C298  1  0.90930000  0.25000000  0.75000000  1
  C  C299  1  0.96420000  0.25000000  0.75000000  1
  C  C300  1  0.29090000  0.25000000  0.25000000  1
  C  C301  1  0.15900000  0.25000000  0.25000000  1
  C  C302  1  0.09070000  0.25000000  0.25000000  1
  C  C303  1  0.03580000  0.25000000  0.25000000  1
  C  C304  1  0.29090000  0.75000000  0.75000000  1
  C  C305  1  0.15900000  0.75000000  0.75000000  1
  C  C306  1  0.09070000  0.75000000  0.75000000  1
  C  C307  1  0.03580000  0.75000000  0.75000000  1
  C  C308  1  0.29090000  0.25000000  0.75000000  1
  C  C309  1  0.15900000  0.25000000  0.75000000  1
  C  C310  1  0.09070000  0.25000000  0.75000000  1
  C  C311  1  0.03580000  0.25000000  0.75000000  1
  C  C312  1  0.29090000  0.75000000  0.25000000  1
  C  C313  1  0.15900000  0.75000000  0.25000000  1
  C  C314  1  0.09070000  0.75000000  0.25000000  1
  C  C315  1  0.03580000  0.75000000  0.25000000  1
  C  C316  1  0.70910000  0.75000000  0.75000000  1
  C  C317  1  0.84100000  0.75000000  0.75000000  1
  C  C318  1  0.90930000  0.75000000  0.75000000  1
  C  C319  1  0.96420000  0.75000000  0.75000000  1
  C  C320  1  0.70910000  0.25000000  0.25000000  1
  C  C321  1  0.84100000  0.25000000  0.25000000  1
  C  C322  1  0.90930000  0.25000000  0.25000000  1
  C  C323  1  0.96420000  0.25000000  0.25000000  1
  N  N324  1  0.38990000  0.55910000  0.50000000  1
  N  N325  1  0.38990000  0.44090000  0.50000000  1
  N  N326  1  0.61010000  0.94090000  0.00000000  1
  N  N327  1  0.61010000  0.05910000  0.00000000  1
  O  O328  1  0.56450000  0.55740000  0.10793000  1
  O  O329  1  0.61920000  0.60710000  0.06041000  1
  O  O330  1  0.56450000  0.05740000  0.60793000  1
  O  O331  1  0.61920000  0.10710000  0.56041000  1
  O  O332  1  0.56450000  0.44260000  0.89207000  1
  O  O333  1  0.61920000  0.39290000  0.93959000  1
  O  O334  1  0.56450000  0.94260000  0.39207000  1
  O  O335  1  0.61920000  0.89290000  0.43959000  1
  O  O336  1  0.43550000  0.44260000  0.10793000  1
  O  O337  1  0.38080000  0.39290000  0.06041000  1
  O  O338  1  0.43550000  0.94260000  0.60793000  1
  O  O339  1  0.38080000  0.89290000  0.56041000  1
  O  O340  1  0.43550000  0.55740000  0.89207000  1
  O  O341  1  0.38080000  0.60710000  0.93959000  1
  O  O342  1  0.43550000  0.05740000  0.39207000  1
  O  O343  1  0.38080000  0.10710000  0.43959000  1
  O  O344  1  0.43550000  0.44260000  0.89207000  1
  O  O345  1  0.38080000  0.39290000  0.93959000  1
  O  O346  1  0.43550000  0.94260000  0.39207000  1
  O  O347  1  0.38080000  0.89290000  0.43959000  1
  O  O348  1  0.43550000  0.55740000  0.10793000  1
  O  O349  1  0.38080000  0.60710000  0.06041000  1
  O  O350  1  0.43550000  0.05740000  0.60793000  1
  O  O351  1  0.38080000  0.10710000  0.56041000  1
  O  O352  1  0.56450000  0.55740000  0.89207000  1
  O  O353  1  0.61920000  0.60710000  0.93959000  1
  O  O354  1  0.56450000  0.05740000  0.39207000  1
  O  O355  1  0.61920000  0.10710000  0.43959000  1
  O  O356  1  0.56450000  0.44260000  0.10793000  1
  O  O357  1  0.61920000  0.39290000  0.06041000  1
  O  O358  1  0.56450000  0.94260000  0.60793000  1
  O  O359  1  0.61920000  0.89290000  0.56041000  1
  O  O360  1  0.41430000  0.50000000  0.03610000  1
  O  O361  1  0.41430000  0.00000000  0.53610000  1
  O  O362  1  0.41430000  0.50000000  0.96390000  1
  O  O363  1  0.41430000  0.00000000  0.46390000  1
  O  O364  1  0.58570000  0.50000000  0.03610000  1
  O  O365  1  0.58570000  0.00000000  0.53610000  1
  O  O366  1  0.58570000  0.50000000  0.96390000  1
  O  O367  1  0.58570000  0.00000000  0.46390000  1
  O  O368  1  0.50000000  0.42590000  0.03600000  1
  O  O369  1  0.50000000  0.92590000  0.53600000  1
  O  O370  1  0.50000000  0.57410000  0.96400000  1
  O  O371  1  0.50000000  0.07410000  0.46400000  1
  O  O372  1  0.50000000  0.57410000  0.03600000  1
  O  O373  1  0.50000000  0.07410000  0.53600000  1
  O  O374  1  0.50000000  0.42590000  0.96400000  1
  O  O375  1  0.50000000  0.92590000  0.46400000  1
  O  O376  1  0.43460000  0.33240000  0.00000000  1
  O  O377  1  0.43460000  0.83240000  0.50000000  1
  O  O378  1  0.43460000  0.66760000  0.00000000  1
  O  O379  1  0.43460000  0.16760000  0.50000000  1
  O  O380  1  0.56540000  0.66760000  0.00000000  1
  O  O381  1  0.56540000  0.16760000  0.50000000  1
  O  O382  1  0.56540000  0.33240000  0.00000000  1
  O  O383  1  0.56540000  0.83240000  0.50000000  1
