# generated using pymatgen
data_Zr8Cu3H72C144(N2O5)6
_symmetry_space_group_name_H-M   'P 1'
_cell_length_a   19.51000000
_cell_length_b   19.51000000
_cell_length_c   19.51000000
_cell_angle_alpha   90.00000000
_cell_angle_beta   90.00000000
_cell_angle_gamma   90.00000000
_symmetry_Int_Tables_number   1
_chemical_formula_structural   Zr8Cu3H72C144(N2O5)6
_chemical_formula_sum   'Zr8 Cu3 H72 C144 N12 O30'
_cell_volume   7426.28835100
_cell_formula_units_Z   1
loop_
 _symmetry_equiv_pos_site_id
 _symmetry_equiv_pos_as_xyz
  1  'x, y, z'
loop_
 _atom_site_type_symbol
 _atom_site_label
 _atom_site_symmetry_multiplicity
 _atom_site_fract_x
 _atom_site_fract_y
 _atom_site_fract_z
 _atom_site_occupancy
  Zr  Zr0  1  0.93107000  0.93107000  0.06893000  1
  Zr  Zr1  1  0.06893000  0.93107000  0.06893000  1
  Zr  Zr2  1  0.06893000  0.06893000  0.06893000  1
  Zr  Zr3  1  0.93107000  0.06893000  0.06893000  1
  Zr  Zr4  1  0.93107000  0.06893000  0.93107000  1
  Zr  Zr5  1  0.93107000  0.93107000  0.93107000  1
  Zr  Zr6  1  0.06893000  0.93107000  0.93107000  1
  Zr  Zr7  1  0.06893000  0.06893000  0.93107000  1
  Cu  Cu8  1  0.50000000  0.00000000  0.50000000  1
  Cu  Cu9  1  0.00000000  0.50000000  0.50000000  1
  Cu  Cu10  1  0.50000000  0.50000000  0.00000000  1
  H  H11  1  0.56360000  0.00000000  0.25150000  1
  H  H12  1  0.77490000  0.89720000  0.22510000  1
  H  H13  1  0.69150000  0.89700000  0.30850000  1
  H  H14  1  0.00000000  0.56360000  0.25150000  1
  H  H15  1  0.10280000  0.77490000  0.22510000  1
  H  H16  1  0.10300000  0.69150000  0.30850000  1
  H  H17  1  0.43640000  0.00000000  0.25150000  1
  H  H18  1  0.22510000  0.10280000  0.22510000  1
  H  H19  1  0.30850000  0.10300000  0.30850000  1
  H  H20  1  0.00000000  0.43640000  0.25150000  1
  H  H21  1  0.89720000  0.22510000  0.22510000  1
  H  H22  1  0.89700000  0.30850000  0.30850000  1
  H  H23  1  0.56360000  0.00000000  0.74850000  1
  H  H24  1  0.77490000  0.10280000  0.77490000  1
  H  H25  1  0.69150000  0.10300000  0.69150000  1
  H  H26  1  0.00000000  0.56360000  0.74850000  1
  H  H27  1  0.89720000  0.77490000  0.77490000  1
  H  H28  1  0.89700000  0.69150000  0.69150000  1
  H  H29  1  0.43640000  0.00000000  0.74850000  1
  H  H30  1  0.22510000  0.89720000  0.77490000  1
  H  H31  1  0.30850000  0.89700000  0.69150000  1
  H  H32  1  0.00000000  0.43640000  0.74850000  1
  H  H33  1  0.10280000  0.22510000  0.77490000  1
  H  H34  1  0.10300000  0.30850000  0.69150000  1
  H  H35  1  0.25150000  0.56360000  0.00000000  1
  H  H36  1  0.22510000  0.77490000  0.89720000  1
  H  H37  1  0.30850000  0.69150000  0.89700000  1
  H  H38  1  0.43640000  0.25150000  0.00000000  1
  H  H39  1  0.22510000  0.22510000  0.89720000  1
  H  H40  1  0.30850000  0.30850000  0.89700000  1
  H  H41  1  0.74850000  0.43640000  0.00000000  1
  H  H42  1  0.77490000  0.22510000  0.89720000  1
  H  H43  1  0.69150000  0.30850000  0.89700000  1
  H  H44  1  0.56360000  0.74850000  0.00000000  1
  H  H45  1  0.77490000  0.77490000  0.89720000  1
  H  H46  1  0.69150000  0.69150000  0.89700000  1
  H  H47  1  0.25150000  0.43640000  0.00000000  1
  H  H48  1  0.22510000  0.22510000  0.10280000  1
  H  H49  1  0.30850000  0.30850000  0.10300000  1
  H  H50  1  0.56360000  0.25150000  0.00000000  1
  H  H51  1  0.77490000  0.22510000  0.10280000  1
  H  H52  1  0.69150000  0.30850000  0.10300000  1
  H  H53  1  0.74850000  0.56360000  0.00000000  1
  H  H54  1  0.77490000  0.77490000  0.10280000  1
  H  H55  1  0.69150000  0.69150000  0.10300000  1
  H  H56  1  0.43640000  0.74850000  0.00000000  1
  H  H57  1  0.22510000  0.77490000  0.10280000  1
  H  H58  1  0.30850000  0.69150000  0.10300000  1
  H  H59  1  0.00000000  0.25150000  0.56360000  1
  H  H60  1  0.89720000  0.22510000  0.77490000  1
  H  H61  1  0.89700000  0.30850000  0.69150000  1
  H  H62  1  0.00000000  0.74850000  0.43640000  1
  H  H63  1  0.89720000  0.77490000  0.22510000  1
  H  H64  1  0.89700000  0.69150000  0.30850000  1
  H  H65  1  0.25150000  0.00000000  0.43640000  1
  H  H66  1  0.22510000  0.89720000  0.22510000  1
  H  H67  1  0.30850000  0.89700000  0.30850000  1
  H  H68  1  0.00000000  0.25150000  0.43640000  1
  H  H69  1  0.10280000  0.22510000  0.22510000  1
  H  H70  1  0.10300000  0.30850000  0.30850000  1
  H  H71  1  0.74850000  0.00000000  0.43640000  1
  H  H72  1  0.77490000  0.10280000  0.22510000  1
  H  H73  1  0.69150000  0.10300000  0.30850000  1
  H  H74  1  0.00000000  0.74850000  0.56360000  1
  H  H75  1  0.10280000  0.77490000  0.77490000  1
  H  H76  1  0.10300000  0.69150000  0.69150000  1
  H  H77  1  0.25150000  0.00000000  0.56360000  1
  H  H78  1  0.22510000  0.10280000  0.77490000  1
  H  H79  1  0.30850000  0.10300000  0.69150000  1
  H  H80  1  0.74850000  0.00000000  0.56360000  1
  H  H81  1  0.77490000  0.89720000  0.77490000  1
  H  H82  1  0.69150000  0.89700000  0.69150000  1
  C  C83  1  0.83790000  0.00000000  0.16210000  1
  C  C84  1  0.62840000  0.00000000  0.37160000  1
  C  C85  1  0.68310000  0.00000000  0.31690000  1
  C  C86  1  0.78320000  0.00000000  0.21680000  1
  C  C87  1  0.55730000  0.00000000  0.36030000  1
  C  C88  1  0.53470000  0.00000000  0.29140000  1
  C  C89  1  0.75780000  0.93950000  0.24220000  1
  C  C90  1  0.70850000  0.93930000  0.29150000  1
  C  C91  1  0.00000000  0.83790000  0.16210000  1
  C  C92  1  0.00000000  0.62840000  0.37160000  1
  C  C93  1  0.00000000  0.68310000  0.31690000  1
  C  C94  1  0.00000000  0.78320000  0.21680000  1
  C  C95  1  0.00000000  0.55730000  0.36030000  1
  C  C96  1  0.00000000  0.53470000  0.29140000  1
  C  C97  1  0.06050000  0.75780000  0.24220000  1
  C  C98  1  0.06070000  0.70850000  0.29150000  1
  C  C99  1  0.16210000  0.00000000  0.16210000  1
  C  C100  1  0.37160000  0.00000000  0.37160000  1
  C  C101  1  0.31690000  0.00000000  0.31690000  1
  C  C102  1  0.21680000  0.00000000  0.21680000  1
  C  C103  1  0.44270000  0.00000000  0.36030000  1
  C  C104  1  0.46530000  0.00000000  0.29140000  1
  C  C105  1  0.24220000  0.06050000  0.24220000  1
  C  C106  1  0.29150000  0.06070000  0.29150000  1
  C  C107  1  0.00000000  0.16210000  0.16210000  1
  C  C108  1  0.00000000  0.37160000  0.37160000  1
  C  C109  1  0.00000000  0.31690000  0.31690000  1
  C  C110  1  0.00000000  0.21680000  0.21680000  1
  C  C111  1  0.00000000  0.44270000  0.36030000  1
  C  C112  1  0.00000000  0.46530000  0.29140000  1
  C  C113  1  0.93950000  0.24220000  0.24220000  1
  C  C114  1  0.93930000  0.29150000  0.29150000  1
  C  C115  1  0.83790000  0.00000000  0.83790000  1
  C  C116  1  0.62840000  0.00000000  0.62840000  1
  C  C117  1  0.68310000  0.00000000  0.68310000  1
  C  C118  1  0.78320000  0.00000000  0.78320000  1
  C  C119  1  0.55730000  0.00000000  0.63970000  1
  C  C120  1  0.53470000  0.00000000  0.70860000  1
  C  C121  1  0.75780000  0.06050000  0.75780000  1
  C  C122  1  0.70850000  0.06070000  0.70850000  1
  C  C123  1  0.00000000  0.83790000  0.83790000  1
  C  C124  1  0.00000000  0.62840000  0.62840000  1
  C  C125  1  0.00000000  0.68310000  0.68310000  1
  C  C126  1  0.00000000  0.78320000  0.78320000  1
  C  C127  1  0.00000000  0.55730000  0.63970000  1
  C  C128  1  0.00000000  0.53470000  0.70860000  1
  C  C129  1  0.93950000  0.75780000  0.75780000  1
  C  C130  1  0.93930000  0.70850000  0.70850000  1
  C  C131  1  0.16210000  0.00000000  0.83790000  1
  C  C132  1  0.37160000  0.00000000  0.62840000  1
  C  C133  1  0.31690000  0.00000000  0.68310000  1
  C  C134  1  0.21680000  0.00000000  0.78320000  1
  C  C135  1  0.44270000  0.00000000  0.63970000  1
  C  C136  1  0.46530000  0.00000000  0.70860000  1
  C  C137  1  0.24220000  0.93950000  0.75780000  1
  C  C138  1  0.29150000  0.93930000  0.70850000  1
  C  C139  1  0.00000000  0.16210000  0.83790000  1
  C  C140  1  0.00000000  0.37160000  0.62840000  1
  C  C141  1  0.00000000  0.31690000  0.68310000  1
  C  C142  1  0.00000000  0.21680000  0.78320000  1
  C  C143  1  0.00000000  0.44270000  0.63970000  1
  C  C144  1  0.00000000  0.46530000  0.70860000  1
  C  C145  1  0.06050000  0.24220000  0.75780000  1
  C  C146  1  0.06070000  0.29150000  0.70850000  1
  C  C147  1  0.16210000  0.83790000  0.00000000  1
  C  C148  1  0.37160000  0.62840000  0.00000000  1
  C  C149  1  0.31690000  0.68310000  0.00000000  1
  C  C150  1  0.21680000  0.78320000  0.00000000  1
  C  C151  1  0.36030000  0.55730000  0.00000000  1
  C  C152  1  0.29140000  0.53470000  0.00000000  1
  C  C153  1  0.24220000  0.75780000  0.93950000  1
  C  C154  1  0.29150000  0.70850000  0.93930000  1
  C  C155  1  0.16210000  0.16210000  0.00000000  1
  C  C156  1  0.37160000  0.37160000  0.00000000  1
  C  C157  1  0.31690000  0.31690000  0.00000000  1
  C  C158  1  0.21680000  0.21680000  0.00000000  1
  C  C159  1  0.44270000  0.36030000  0.00000000  1
  C  C160  1  0.46530000  0.29140000  0.00000000  1
  C  C161  1  0.24220000  0.24220000  0.93950000  1
  C  C162  1  0.29150000  0.29150000  0.93930000  1
  C  C163  1  0.83790000  0.16210000  0.00000000  1
  C  C164  1  0.62840000  0.37160000  0.00000000  1
  C  C165  1  0.68310000  0.31690000  0.00000000  1
  C  C166  1  0.78320000  0.21680000  0.00000000  1
  C  C167  1  0.63970000  0.44270000  0.00000000  1
  C  C168  1  0.70860000  0.46530000  0.00000000  1
  C  C169  1  0.75780000  0.24220000  0.93950000  1
  C  C170  1  0.70850000  0.29150000  0.93930000  1
  C  C171  1  0.83790000  0.83790000  0.00000000  1
  C  C172  1  0.62840000  0.62840000  0.00000000  1
  C  C173  1  0.68310000  0.68310000  0.00000000  1
  C  C174  1  0.78320000  0.78320000  0.00000000  1
  C  C175  1  0.55730000  0.63970000  0.00000000  1
  C  C176  1  0.53470000  0.70860000  0.00000000  1
  C  C177  1  0.75780000  0.75780000  0.93950000  1
  C  C178  1  0.70850000  0.70850000  0.93930000  1
  C  C179  1  0.36030000  0.44270000  0.00000000  1
  C  C180  1  0.29140000  0.46530000  0.00000000  1
  C  C181  1  0.24220000  0.24220000  0.06050000  1
  C  C182  1  0.29150000  0.29150000  0.06070000  1
  C  C183  1  0.55730000  0.36030000  0.00000000  1
  C  C184  1  0.53470000  0.29140000  0.00000000  1
  C  C185  1  0.75780000  0.24220000  0.06050000  1
  C  C186  1  0.70850000  0.29150000  0.06070000  1
  C  C187  1  0.63970000  0.55730000  0.00000000  1
  C  C188  1  0.70860000  0.53470000  0.00000000  1
  C  C189  1  0.75780000  0.75780000  0.06050000  1
  C  C190  1  0.70850000  0.70850000  0.06070000  1
  C  C191  1  0.44270000  0.63970000  0.00000000  1
  C  C192  1  0.46530000  0.70860000  0.00000000  1
  C  C193  1  0.24220000  0.75780000  0.06050000  1
  C  C194  1  0.29150000  0.70850000  0.06070000  1
  C  C195  1  0.00000000  0.36030000  0.55730000  1
  C  C196  1  0.00000000  0.29140000  0.53470000  1
  C  C197  1  0.93950000  0.24220000  0.75780000  1
  C  C198  1  0.93930000  0.29150000  0.70850000  1
  C  C199  1  0.00000000  0.63970000  0.44270000  1
  C  C200  1  0.00000000  0.70860000  0.46530000  1
  C  C201  1  0.93950000  0.75780000  0.24220000  1
  C  C202  1  0.93930000  0.70850000  0.29150000  1
  C  C203  1  0.36030000  0.00000000  0.44270000  1
  C  C204  1  0.29140000  0.00000000  0.46530000  1
  C  C205  1  0.24220000  0.93950000  0.24220000  1
  C  C206  1  0.29150000  0.93930000  0.29150000  1
  C  C207  1  0.00000000  0.36030000  0.44270000  1
  C  C208  1  0.00000000  0.29140000  0.46530000  1
  C  C209  1  0.06050000  0.24220000  0.24220000  1
  C  C210  1  0.06070000  0.29150000  0.29150000  1
  C  C211  1  0.63970000  0.00000000  0.44270000  1
  C  C212  1  0.70860000  0.00000000  0.46530000  1
  C  C213  1  0.75780000  0.06050000  0.24220000  1
  C  C214  1  0.70850000  0.06070000  0.29150000  1
  C  C215  1  0.00000000  0.63970000  0.55730000  1
  C  C216  1  0.00000000  0.70860000  0.53470000  1
  C  C217  1  0.06050000  0.75780000  0.75780000  1
  C  C218  1  0.06070000  0.70850000  0.70850000  1
  C  C219  1  0.36030000  0.00000000  0.55730000  1
  C  C220  1  0.29140000  0.00000000  0.53470000  1
  C  C221  1  0.24220000  0.06050000  0.75780000  1
  C  C222  1  0.29150000  0.06070000  0.70850000  1
  C  C223  1  0.63970000  0.00000000  0.55730000  1
  C  C224  1  0.70860000  0.00000000  0.53470000  1
  C  C225  1  0.75780000  0.93950000  0.75780000  1
  C  C226  1  0.70850000  0.93930000  0.70850000  1
  N  N227  1  0.50000000  0.00000000  0.39960000  1
  N  N228  1  0.00000000  0.50000000  0.39960000  1
  N  N229  1  0.50000000  0.00000000  0.60040000  1
  N  N230  1  0.00000000  0.50000000  0.60040000  1
  N  N231  1  0.39960000  0.50000000  0.00000000  1
  N  N232  1  0.50000000  0.39960000  0.00000000  1
  N  N233  1  0.60040000  0.50000000  0.00000000  1
  N  N234  1  0.50000000  0.60040000  0.00000000  1
  N  N235  1  0.00000000  0.39960000  0.50000000  1
  N  N236  1  0.00000000  0.60040000  0.50000000  1
  N  N237  1  0.39960000  0.00000000  0.50000000  1
  N  N238  1  0.60040000  0.00000000  0.50000000  1
  O  O239  1  0.85810000  0.94290000  0.14190000  1
  O  O240  1  0.00000000  0.88300000  0.00000000  1
  O  O241  1  0.05710000  0.85810000  0.14190000  1
  O  O242  1  0.11700000  0.00000000  0.00000000  1
  O  O243  1  0.14190000  0.05710000  0.14190000  1
  O  O244  1  0.00000000  0.11700000  0.00000000  1
  O  O245  1  0.94290000  0.14190000  0.14190000  1
  O  O246  1  0.88300000  0.00000000  0.00000000  1
  O  O247  1  0.85810000  0.05710000  0.85810000  1
  O  O248  1  0.94290000  0.85810000  0.85810000  1
  O  O249  1  0.14190000  0.94290000  0.85810000  1
  O  O250  1  0.05710000  0.14190000  0.85810000  1
  O  O251  1  0.14190000  0.85810000  0.94290000  1
  O  O252  1  0.00000000  0.00000000  0.88300000  1
  O  O253  1  0.14190000  0.14190000  0.94290000  1
  O  O254  1  0.85810000  0.14190000  0.94290000  1
  O  O255  1  0.85810000  0.85810000  0.94290000  1
  O  O256  1  0.14190000  0.14190000  0.05710000  1
  O  O257  1  0.00000000  0.00000000  0.11700000  1
  O  O258  1  0.85810000  0.14190000  0.05710000  1
  O  O259  1  0.85810000  0.85810000  0.05710000  1
  O  O260  1  0.14190000  0.85810000  0.05710000  1
  O  O261  1  0.94290000  0.14190000  0.85810000  1
  O  O262  1  0.94290000  0.85810000  0.14190000  1
  O  O263  1  0.14190000  0.94290000  0.14190000  1
  O  O264  1  0.05710000  0.14190000  0.14190000  1
  O  O265  1  0.85810000  0.05710000  0.14190000  1
  O  O266  1  0.05710000  0.85810000  0.85810000  1
  O  O267  1  0.14190000  0.05710000  0.85810000  1
  O  O268  1  0.85810000  0.94290000  0.85810000  1
