# generated using pymatgen
data_Zr3H26(C3O)16
_symmetry_space_group_name_H-M   'P 1'
_cell_length_a   15.42900000
_cell_length_b   20.35003104
_cell_length_c   20.35003104
_cell_angle_alpha   116.27782904
_cell_angle_beta   90.00000000
_cell_angle_gamma   90.00000000
_symmetry_Int_Tables_number   1
_chemical_formula_structural   Zr3H26(C3O)16
_chemical_formula_sum   'Zr6 H52 C96 O32'
_cell_volume   5729.20902896
_cell_formula_units_Z   2
loop_
 _symmetry_equiv_pos_site_id
 _symmetry_equiv_pos_as_xyz
  1  'x, y, z'
loop_
 _atom_site_type_symbol
 _atom_site_label
 _atom_site_symmetry_multiplicity
 _atom_site_fract_x
 _atom_site_fract_y
 _atom_site_fract_z
 _atom_site_occupancy
  C  C0  1  0.85840000  0.80568000  0.99112000  1
  C  C1  1  0.75100000  0.70373000  0.94027000  1
  C  C2  1  0.59420000  0.55490000  0.99370000  1
  C  C3  1  0.81320000  0.74099000  0.99021000  1
  C  C4  1  0.68560000  0.55580000  0.99340000  1
  C  C5  1  0.70880000  0.64362000  0.94018000  1
  C  C6  1  0.73100000  0.62038000  0.99262000  1
  C  C7  1  0.79210000  0.65760000  0.04240000  1
  C  C8  1  0.83400000  0.71791000  0.04329000  1
  C  C9  1  0.85840000  0.19432000  0.00888000  1
  C  C10  1  0.75100000  0.29627000  0.05973000  1
  C  C11  1  0.59420000  0.44510000  0.00630000  1
  C  C12  1  0.81320000  0.25901000  0.00979000  1
  C  C13  1  0.68560000  0.44420000  0.00660000  1
  C  C14  1  0.70880000  0.35638000  0.05982000  1
  C  C15  1  0.73100000  0.37962000  0.00738000  1
  C  C16  1  0.79210000  0.34240000  0.95760000  1
  C  C17  1  0.83400000  0.28209000  0.95671000  1
  C  C18  1  0.14160000  0.00888000  0.19432000  1
  C  C19  1  0.24900000  0.05973000  0.29627000  1
  C  C20  1  0.40580000  0.00630000  0.44510000  1
  C  C21  1  0.18680000  0.00979000  0.25901000  1
  C  C22  1  0.31440000  0.00660000  0.44420000  1
  C  C23  1  0.29120000  0.05982000  0.35638000  1
  C  C24  1  0.26900000  0.00738000  0.37962000  1
  C  C25  1  0.20790000  0.95760000  0.34240000  1
  C  C26  1  0.16600000  0.95671000  0.28209000  1
  C  C27  1  0.14160000  0.99112000  0.80568000  1
  C  C28  1  0.24900000  0.94027000  0.70373000  1
  C  C29  1  0.40580000  0.99370000  0.55490000  1
  C  C30  1  0.18680000  0.99021000  0.74099000  1
  C  C31  1  0.31440000  0.99340000  0.55580000  1
  C  C32  1  0.29120000  0.94018000  0.64362000  1
  C  C33  1  0.26900000  0.99262000  0.62038000  1
  C  C34  1  0.20790000  0.04240000  0.65760000  1
  C  C35  1  0.16600000  0.04329000  0.71791000  1
  C  C36  1  0.14160000  0.19432000  0.00888000  1
  C  C37  1  0.24900000  0.29627000  0.05973000  1
  C  C38  1  0.40580000  0.44510000  0.00630000  1
  C  C39  1  0.18680000  0.25901000  0.00979000  1
  C  C40  1  0.31440000  0.44420000  0.00660000  1
  C  C41  1  0.29120000  0.35638000  0.05982000  1
  C  C42  1  0.26900000  0.37962000  0.00738000  1
  C  C43  1  0.20790000  0.34240000  0.95760000  1
  C  C44  1  0.16600000  0.28209000  0.95671000  1
  C  C45  1  0.14160000  0.80568000  0.99112000  1
  C  C46  1  0.24900000  0.70373000  0.94027000  1
  C  C47  1  0.40580000  0.55490000  0.99370000  1
  C  C48  1  0.18680000  0.74099000  0.99021000  1
  C  C49  1  0.31440000  0.55580000  0.99340000  1
  C  C50  1  0.29120000  0.64362000  0.94018000  1
  C  C51  1  0.26900000  0.62038000  0.99262000  1
  C  C52  1  0.20790000  0.65760000  0.04240000  1
  C  C53  1  0.16600000  0.71791000  0.04329000  1
  C  C54  1  0.85840000  0.99112000  0.80568000  1
  C  C55  1  0.75100000  0.94027000  0.70373000  1
  C  C56  1  0.59420000  0.99370000  0.55490000  1
  C  C57  1  0.81320000  0.99021000  0.74099000  1
  C  C58  1  0.68560000  0.99340000  0.55580000  1
  C  C59  1  0.70880000  0.94018000  0.64362000  1
  C  C60  1  0.73100000  0.99262000  0.62038000  1
  C  C61  1  0.79210000  0.04240000  0.65760000  1
  C  C62  1  0.83400000  0.04329000  0.71791000  1
  C  C63  1  0.85840000  0.00888000  0.19432000  1
  C  C64  1  0.75100000  0.05973000  0.29627000  1
  C  C65  1  0.59420000  0.00630000  0.44510000  1
  C  C66  1  0.81320000  0.00979000  0.25901000  1
  C  C67  1  0.68560000  0.00660000  0.44420000  1
  C  C68  1  0.70880000  0.05982000  0.35638000  1
  C  C69  1  0.73100000  0.00738000  0.37962000  1
  C  C70  1  0.79210000  0.95760000  0.34240000  1
  C  C71  1  0.83400000  0.95671000  0.28209000  1
  C  C72  1  0.92090000  0.62620000  0.62620000  1
  C  C73  1  0.92130000  0.69090000  0.69090000  1
  C  C74  1  0.92090000  0.37380000  0.37380000  1
  C  C75  1  0.92130000  0.30910000  0.30910000  1
  C  C76  1  0.07910000  0.37380000  0.37380000  1
  C  C77  1  0.07870000  0.30910000  0.30910000  1
  C  C78  1  0.07910000  0.62620000  0.62620000  1
  C  C79  1  0.07870000  0.69090000  0.69090000  1
  C  C80  1  0.54910000  0.50000000  0.00000000  1
  C  C81  1  0.73000000  0.50000000  0.00000000  1
  C  C82  1  0.45090000  0.00000000  0.50000000  1
  C  C83  1  0.27000000  0.00000000  0.50000000  1
  C  C84  1  0.45090000  0.50000000  0.00000000  1
  C  C85  1  0.27000000  0.50000000  0.00000000  1
  C  C86  1  0.54910000  0.00000000  0.50000000  1
  C  C87  1  0.73000000  0.00000000  0.50000000  1
  C  C88  1  0.00000000  0.72290000  0.72290000  1
  C  C89  1  0.00000000  0.79430000  0.79430000  1
  C  C90  1  0.00000000  0.59290000  0.59290000  1
  C  C91  1  0.00000000  0.52670000  0.52670000  1
  C  C92  1  0.00000000  0.27710000  0.27710000  1
  C  C93  1  0.00000000  0.20570000  0.20570000  1
  C  C94  1  0.00000000  0.40710000  0.40710000  1
  C  C95  1  0.00000000  0.47330000  0.47330000  1
  H  H96  1  0.73600000  0.71950000  0.90430000  1
  H  H97  1  0.56330000  0.59320000  0.98940000  1
  H  H98  1  0.66540000  0.61870000  0.90470000  1
  H  H99  1  0.80700000  0.64170000  0.07830000  1
  H  H100  1  0.87640000  0.74340000  0.07960000  1
  H  H101  1  0.73600000  0.28050000  0.09570000  1
  H  H102  1  0.56330000  0.40680000  0.01060000  1
  H  H103  1  0.66540000  0.38130000  0.09530000  1
  H  H104  1  0.80700000  0.35830000  0.92170000  1
  H  H105  1  0.87640000  0.25660000  0.92040000  1
  H  H106  1  0.26400000  0.09570000  0.28050000  1
  H  H107  1  0.43670000  0.01060000  0.40680000  1
  H  H108  1  0.33460000  0.09530000  0.38130000  1
  H  H109  1  0.19300000  0.92170000  0.35830000  1
  H  H110  1  0.12360000  0.92040000  0.25660000  1
  H  H111  1  0.26400000  0.90430000  0.71950000  1
  H  H112  1  0.43670000  0.98940000  0.59320000  1
  H  H113  1  0.33460000  0.90470000  0.61870000  1
  H  H114  1  0.19300000  0.07830000  0.64170000  1
  H  H115  1  0.12360000  0.07960000  0.74340000  1
  H  H116  1  0.26400000  0.28050000  0.09570000  1
  H  H117  1  0.43670000  0.40680000  0.01060000  1
  H  H118  1  0.33460000  0.38130000  0.09530000  1
  H  H119  1  0.19300000  0.35830000  0.92170000  1
  H  H120  1  0.12360000  0.25660000  0.92040000  1
  H  H121  1  0.26400000  0.71950000  0.90430000  1
  H  H122  1  0.43670000  0.59320000  0.98940000  1
  H  H123  1  0.33460000  0.61870000  0.90470000  1
  H  H124  1  0.19300000  0.64170000  0.07830000  1
  H  H125  1  0.12360000  0.74340000  0.07960000  1
  H  H126  1  0.73600000  0.90430000  0.71950000  1
  H  H127  1  0.56330000  0.98940000  0.59320000  1
  H  H128  1  0.66540000  0.90470000  0.61870000  1
  H  H129  1  0.80700000  0.07830000  0.64170000  1
  H  H130  1  0.87640000  0.07960000  0.74340000  1
  H  H131  1  0.73600000  0.09570000  0.28050000  1
  H  H132  1  0.56330000  0.01060000  0.40680000  1
  H  H133  1  0.66540000  0.09530000  0.38130000  1
  H  H134  1  0.80700000  0.92170000  0.35830000  1
  H  H135  1  0.87640000  0.92040000  0.25660000  1
  H  H136  1  0.14325000  0.40013000  0.40013000  1
  H  H137  1  0.14252000  0.28236000  0.28236000  1
  H  H138  1  0.14325000  0.59987000  0.59987000  1
  H  H139  1  0.14252000  0.71764000  0.71764000  1
  H  H140  1  0.85675000  0.59987000  0.59987000  1
  H  H141  1  0.85748000  0.71764000  0.71764000  1
  H  H142  1  0.85675000  0.40013000  0.40013000  1
  H  H143  1  0.85748000  0.28236000  0.28236000  1
  H  H144  1  0.15952000  0.03027000  0.46973000  1
  H  H145  1  0.84048000  0.96973000  0.53027000  1
  H  H146  1  0.84048000  0.46973000  0.03027000  1
  H  H147  1  0.15952000  0.53027000  0.96973000  1
  O  O148  1  0.91370000  0.83528000  0.04092000  1
  O  O149  1  0.83970000  0.82583000  0.94237000  1
  O  O150  1  0.91370000  0.16472000  0.95908000  1
  O  O151  1  0.83970000  0.17417000  0.05763000  1
  O  O152  1  0.08630000  0.95908000  0.16472000  1
  O  O153  1  0.16030000  0.05763000  0.17417000  1
  O  O154  1  0.08630000  0.04092000  0.83528000  1
  O  O155  1  0.16030000  0.94237000  0.82583000  1
  O  O156  1  0.08630000  0.16472000  0.95908000  1
  O  O157  1  0.16030000  0.17417000  0.05763000  1
  O  O158  1  0.08630000  0.83528000  0.04092000  1
  O  O159  1  0.16030000  0.82583000  0.94237000  1
  O  O160  1  0.91370000  0.04092000  0.83528000  1
  O  O161  1  0.83970000  0.94237000  0.82583000  1
  O  O162  1  0.91370000  0.95908000  0.16472000  1
  O  O163  1  0.83970000  0.05763000  0.17417000  1
  O  O164  1  0.90420000  0.81870000  0.81870000  1
  O  O165  1  0.90420000  0.18130000  0.18130000  1
  O  O166  1  0.09580000  0.18130000  0.18130000  1
  O  O167  1  0.09580000  0.81870000  0.81870000  1
  O  O168  1  0.00000000  0.88400000  0.95300000  1
  O  O169  1  0.00000000  0.11600000  0.04700000  1
  O  O170  1  0.00000000  0.04700000  0.11600000  1
  O  O171  1  0.00000000  0.95300000  0.88400000  1
  O  O172  1  0.88470000  0.96597000  0.03403000  1
  O  O173  1  0.88470000  0.03403000  0.96597000  1
  O  O174  1  0.11530000  0.96597000  0.03403000  1
  O  O175  1  0.11530000  0.03403000  0.96597000  1
  O  O176  1  0.81650000  0.50000000  0.00000000  1
  O  O177  1  0.18350000  0.00000000  0.50000000  1
  O  O178  1  0.18350000  0.50000000  0.00000000  1
  O  O179  1  0.81650000  0.00000000  0.50000000  1
  Zr  Zr180  1  0.00000000  0.92941000  0.07059000  1
  Zr  Zr181  1  0.00000000  0.07059000  0.92941000  1
  Zr  Zr182  1  0.88602000  0.91745000  0.91745000  1
  Zr  Zr183  1  0.88602000  0.08255000  0.08255000  1
  Zr  Zr184  1  0.11398000  0.08255000  0.08255000  1
  Zr  Zr185  1  0.11398000  0.91745000  0.91745000  1
