# generated using pymatgen
data_Zr3H30(C25O8)2
_symmetry_space_group_name_H-M   'P 1'
_cell_length_a   15.21700000
_cell_length_b   21.55310000
_cell_length_c   34.77520000
_cell_angle_alpha   90.00000000
_cell_angle_beta   90.00000000
_cell_angle_gamma   90.00000000
_symmetry_Int_Tables_number   1
_chemical_formula_structural   Zr3H30(C25O8)2
_chemical_formula_sum   'Zr12 H120 C200 O64'
_cell_volume   11405.34484660
_cell_formula_units_Z   4
loop_
 _symmetry_equiv_pos_site_id
 _symmetry_equiv_pos_as_xyz
  1  'x, y, z'
loop_
 _atom_site_type_symbol
 _atom_site_label
 _atom_site_symmetry_multiplicity
 _atom_site_fract_x
 _atom_site_fract_y
 _atom_site_fract_z
 _atom_site_occupancy
  Zr  Zr0  1  0.50000000  0.00000000  0.06996000  1
  Zr  Zr1  1  0.50000000  0.50000000  0.56996000  1
  Zr  Zr2  1  0.50000000  0.00000000  0.93004000  1
  Zr  Zr3  1  0.50000000  0.50000000  0.43004000  1
  Zr  Zr4  1  0.38461000  0.08250000  0.00000000  1
  Zr  Zr5  1  0.38461000  0.58250000  0.50000000  1
  Zr  Zr6  1  0.38461000  0.91750000  0.00000000  1
  Zr  Zr7  1  0.38461000  0.41750000  0.50000000  1
  Zr  Zr8  1  0.61539000  0.91750000  0.00000000  1
  Zr  Zr9  1  0.61539000  0.41750000  0.50000000  1
  Zr  Zr10  1  0.61539000  0.08250000  0.00000000  1
  Zr  Zr11  1  0.61539000  0.58250000  0.50000000  1
  H  H12  1  0.23090000  0.19000000  0.09260000  1
  H  H13  1  0.16820000  0.24140000  0.14390000  1
  H  H14  1  0.31450000  0.14090000  0.21770000  1
  H  H15  1  0.37880000  0.08910000  0.16610000  1
  H  H16  1  0.06630000  0.20800000  0.19850000  1
  H  H17  1  0.23090000  0.69000000  0.59260000  1
  H  H18  1  0.16820000  0.74140000  0.64390000  1
  H  H19  1  0.31450000  0.64090000  0.71770000  1
  H  H20  1  0.37880000  0.58910000  0.66610000  1
  H  H21  1  0.06630000  0.70800000  0.69850000  1
  H  H22  1  0.42620000  0.79030000  0.72030000  1
  H  H23  1  0.34630000  0.83730000  0.72710000  1
  H  H24  1  0.33890000  0.78460000  0.69480000  1
  H  H25  1  0.23090000  0.81000000  0.90740000  1
  H  H26  1  0.16820000  0.75860000  0.85610000  1
  H  H27  1  0.31450000  0.85910000  0.78230000  1
  H  H28  1  0.37880000  0.91090000  0.83390000  1
  H  H29  1  0.06630000  0.79200000  0.80150000  1
  H  H30  1  0.23090000  0.31000000  0.40740000  1
  H  H31  1  0.16820000  0.25860000  0.35610000  1
  H  H32  1  0.31450000  0.35910000  0.28230000  1
  H  H33  1  0.37880000  0.41090000  0.33390000  1
  H  H34  1  0.06630000  0.29200000  0.30150000  1
  H  H35  1  0.42620000  0.20970000  0.27970000  1
  H  H36  1  0.34630000  0.16270000  0.27290000  1
  H  H37  1  0.33890000  0.21540000  0.30520000  1
  H  H38  1  0.76910000  0.81000000  0.09260000  1
  H  H39  1  0.83180000  0.75860000  0.14390000  1
  H  H40  1  0.68550000  0.85910000  0.21770000  1
  H  H41  1  0.62120000  0.91090000  0.16610000  1
  H  H42  1  0.93370000  0.79200000  0.19850000  1
  H  H43  1  0.57380000  0.70970000  0.22030000  1
  H  H44  1  0.65370000  0.66270000  0.22710000  1
  H  H45  1  0.66110000  0.71540000  0.19480000  1
  H  H46  1  0.76910000  0.31000000  0.59260000  1
  H  H47  1  0.83180000  0.25860000  0.64390000  1
  H  H48  1  0.68550000  0.35910000  0.71770000  1
  H  H49  1  0.62120000  0.41090000  0.66610000  1
  H  H50  1  0.93370000  0.29200000  0.69850000  1
  H  H51  1  0.76910000  0.19000000  0.90740000  1
  H  H52  1  0.83180000  0.24140000  0.85610000  1
  H  H53  1  0.68550000  0.14090000  0.78230000  1
  H  H54  1  0.62120000  0.08910000  0.83390000  1
  H  H55  1  0.93370000  0.20800000  0.80150000  1
  H  H56  1  0.57380000  0.29030000  0.77970000  1
  H  H57  1  0.65370000  0.33730000  0.77290000  1
  H  H58  1  0.66110000  0.28460000  0.80520000  1
  H  H59  1  0.76910000  0.69000000  0.40740000  1
  H  H60  1  0.83180000  0.74140000  0.35610000  1
  H  H61  1  0.68550000  0.64090000  0.28230000  1
  H  H62  1  0.62120000  0.58910000  0.33390000  1
  H  H63  1  0.93370000  0.70800000  0.30150000  1
  H  H64  1  0.76910000  0.81000000  0.90740000  1
  H  H65  1  0.83180000  0.75860000  0.85610000  1
  H  H66  1  0.68550000  0.85910000  0.78230000  1
  H  H67  1  0.62120000  0.91090000  0.83390000  1
  H  H68  1  0.93370000  0.79200000  0.80150000  1
  H  H69  1  0.76910000  0.31000000  0.40740000  1
  H  H70  1  0.83180000  0.25860000  0.35610000  1
  H  H71  1  0.68550000  0.35910000  0.28230000  1
  H  H72  1  0.62120000  0.41090000  0.33390000  1
  H  H73  1  0.93370000  0.29200000  0.30150000  1
  H  H74  1  0.76910000  0.19000000  0.09260000  1
  H  H75  1  0.83180000  0.24140000  0.14390000  1
  H  H76  1  0.68550000  0.14090000  0.21770000  1
  H  H77  1  0.62120000  0.08910000  0.16610000  1
  H  H78  1  0.93370000  0.20800000  0.19850000  1
  H  H79  1  0.57380000  0.29030000  0.22030000  1
  H  H80  1  0.65370000  0.33730000  0.22710000  1
  H  H81  1  0.66110000  0.28460000  0.19480000  1
  H  H82  1  0.76910000  0.69000000  0.59260000  1
  H  H83  1  0.83180000  0.74140000  0.64390000  1
  H  H84  1  0.68550000  0.64090000  0.71770000  1
  H  H85  1  0.62120000  0.58910000  0.66610000  1
  H  H86  1  0.93370000  0.70800000  0.69850000  1
  H  H87  1  0.57380000  0.79030000  0.72030000  1
  H  H88  1  0.65370000  0.83730000  0.72710000  1
  H  H89  1  0.66110000  0.78460000  0.69480000  1
  H  H90  1  0.23090000  0.19000000  0.90740000  1
  H  H91  1  0.16820000  0.24140000  0.85610000  1
  H  H92  1  0.31450000  0.14090000  0.78230000  1
  H  H93  1  0.37880000  0.08910000  0.83390000  1
  H  H94  1  0.06630000  0.20800000  0.80150000  1
  H  H95  1  0.42620000  0.29030000  0.77970000  1
  H  H96  1  0.34630000  0.33730000  0.77290000  1
  H  H97  1  0.33890000  0.28460000  0.80520000  1
  H  H98  1  0.23090000  0.69000000  0.40740000  1
  H  H99  1  0.16820000  0.74140000  0.35610000  1
  H  H100  1  0.31450000  0.64090000  0.28230000  1
  H  H101  1  0.37880000  0.58910000  0.33390000  1
  H  H102  1  0.06630000  0.70800000  0.30150000  1
  H  H103  1  0.42620000  0.79030000  0.27970000  1
  H  H104  1  0.34630000  0.83730000  0.27290000  1
  H  H105  1  0.33890000  0.78460000  0.30520000  1
  H  H106  1  0.23090000  0.81000000  0.09260000  1
  H  H107  1  0.16820000  0.75860000  0.14390000  1
  H  H108  1  0.31450000  0.85910000  0.21770000  1
  H  H109  1  0.37880000  0.91090000  0.16610000  1
  H  H110  1  0.06630000  0.79200000  0.19850000  1
  H  H111  1  0.23090000  0.31000000  0.59260000  1
  H  H112  1  0.16820000  0.25860000  0.64390000  1
  H  H113  1  0.31450000  0.35910000  0.71770000  1
  H  H114  1  0.37880000  0.41090000  0.66610000  1
  H  H115  1  0.06630000  0.29200000  0.69850000  1
  H  H116  1  0.35830000  0.40340000  0.00000000  1
  H  H117  1  0.35830000  0.90340000  0.50000000  1
  H  H118  1  0.35830000  0.59660000  0.00000000  1
  H  H119  1  0.35830000  0.09660000  0.50000000  1
  H  H120  1  0.64170000  0.59660000  0.00000000  1
  H  H121  1  0.64170000  0.09660000  0.50000000  1
  H  H122  1  0.64170000  0.40340000  0.00000000  1
  H  H123  1  0.64170000  0.90340000  0.50000000  1
  H  H124  1  0.33699000  0.78107000  0.50000000  1
  H  H125  1  0.66301000  0.78107000  0.50000000  1
  H  H126  1  0.33699000  0.21893000  0.50000000  1
  H  H127  1  0.66301000  0.21893000  0.50000000  1
  H  H128  1  0.33699000  0.71893000  0.00000000  1
  H  H129  1  0.66301000  0.71893000  0.00000000  1
  H  H130  1  0.33699000  0.28107000  0.00000000  1
  H  H131  1  0.66301000  0.28107000  0.00000000  1
  C  C132  1  0.35690000  0.10340000  0.09220000  1
  C  C133  1  0.31370000  0.13550000  0.12400000  1
  C  C134  1  0.24880000  0.18020000  0.11800000  1
  C  C135  1  0.21060000  0.21000000  0.14850000  1
  C  C136  1  0.23260000  0.19520000  0.18570000  1
  C  C137  1  0.29720000  0.15060000  0.19210000  1
  C  C138  1  0.33620000  0.12040000  0.16140000  1
  C  C139  1  0.18740000  0.22560000  0.21920000  1
  C  C140  1  0.09730000  0.22550000  0.21970000  1
  C  C141  1  0.35690000  0.60340000  0.59220000  1
  C  C142  1  0.31370000  0.63550000  0.62400000  1
  C  C143  1  0.24880000  0.68020000  0.61800000  1
  C  C144  1  0.21060000  0.71000000  0.64850000  1
  C  C145  1  0.23260000  0.69520000  0.68570000  1
  C  C146  1  0.29720000  0.65060000  0.69210000  1
  C  C147  1  0.33620000  0.62040000  0.66140000  1
  C  C148  1  0.18740000  0.72560000  0.71920000  1
  C  C149  1  0.09730000  0.72550000  0.71970000  1
  C  C150  1  0.36210000  0.79450000  0.72040000  1
  C  C151  1  0.35690000  0.89660000  0.90780000  1
  C  C152  1  0.31370000  0.86450000  0.87600000  1
  C  C153  1  0.24880000  0.81980000  0.88200000  1
  C  C154  1  0.21060000  0.79000000  0.85150000  1
  C  C155  1  0.23260000  0.80480000  0.81430000  1
  C  C156  1  0.29720000  0.84940000  0.80790000  1
  C  C157  1  0.33620000  0.87960000  0.83860000  1
  C  C158  1  0.18740000  0.77440000  0.78080000  1
  C  C159  1  0.09730000  0.77450000  0.78030000  1
  C  C160  1  0.35690000  0.39660000  0.40780000  1
  C  C161  1  0.31370000  0.36450000  0.37600000  1
  C  C162  1  0.24880000  0.31980000  0.38200000  1
  C  C163  1  0.21060000  0.29000000  0.35150000  1
  C  C164  1  0.23260000  0.30480000  0.31430000  1
  C  C165  1  0.29720000  0.34940000  0.30790000  1
  C  C166  1  0.33620000  0.37960000  0.33860000  1
  C  C167  1  0.18740000  0.27440000  0.28080000  1
  C  C168  1  0.09730000  0.27450000  0.28030000  1
  C  C169  1  0.36210000  0.20550000  0.27960000  1
  C  C170  1  0.64310000  0.89660000  0.09220000  1
  C  C171  1  0.68630000  0.86450000  0.12400000  1
  C  C172  1  0.75120000  0.81980000  0.11800000  1
  C  C173  1  0.78940000  0.79000000  0.14850000  1
  C  C174  1  0.76740000  0.80480000  0.18570000  1
  C  C175  1  0.70280000  0.84940000  0.19210000  1
  C  C176  1  0.66380000  0.87960000  0.16140000  1
  C  C177  1  0.81260000  0.77440000  0.21920000  1
  C  C178  1  0.90270000  0.77450000  0.21970000  1
  C  C179  1  0.63790000  0.70550000  0.22040000  1
  C  C180  1  0.64310000  0.39660000  0.59220000  1
  C  C181  1  0.68630000  0.36450000  0.62400000  1
  C  C182  1  0.75120000  0.31980000  0.61800000  1
  C  C183  1  0.78940000  0.29000000  0.64850000  1
  C  C184  1  0.76740000  0.30480000  0.68570000  1
  C  C185  1  0.70280000  0.34940000  0.69210000  1
  C  C186  1  0.66380000  0.37960000  0.66140000  1
  C  C187  1  0.81260000  0.27440000  0.71920000  1
  C  C188  1  0.90270000  0.27450000  0.71970000  1
  C  C189  1  0.64310000  0.10340000  0.90780000  1
  C  C190  1  0.68630000  0.13550000  0.87600000  1
  C  C191  1  0.75120000  0.18020000  0.88200000  1
  C  C192  1  0.78940000  0.21000000  0.85150000  1
  C  C193  1  0.76740000  0.19520000  0.81430000  1
  C  C194  1  0.70280000  0.15060000  0.80790000  1
  C  C195  1  0.66380000  0.12040000  0.83860000  1
  C  C196  1  0.81260000  0.22560000  0.78080000  1
  C  C197  1  0.90270000  0.22550000  0.78030000  1
  C  C198  1  0.63790000  0.29450000  0.77960000  1
  C  C199  1  0.64310000  0.60340000  0.40780000  1
  C  C200  1  0.68630000  0.63550000  0.37600000  1
  C  C201  1  0.75120000  0.68020000  0.38200000  1
  C  C202  1  0.78940000  0.71000000  0.35150000  1
  C  C203  1  0.76740000  0.69520000  0.31430000  1
  C  C204  1  0.70280000  0.65060000  0.30790000  1
  C  C205  1  0.66380000  0.62040000  0.33860000  1
  C  C206  1  0.81260000  0.72560000  0.28080000  1
  C  C207  1  0.90270000  0.72550000  0.28030000  1
  C  C208  1  0.64310000  0.89660000  0.90780000  1
  C  C209  1  0.68630000  0.86450000  0.87600000  1
  C  C210  1  0.75120000  0.81980000  0.88200000  1
  C  C211  1  0.78940000  0.79000000  0.85150000  1
  C  C212  1  0.76740000  0.80480000  0.81430000  1
  C  C213  1  0.70280000  0.84940000  0.80790000  1
  C  C214  1  0.66380000  0.87960000  0.83860000  1
  C  C215  1  0.81260000  0.77440000  0.78080000  1
  C  C216  1  0.90270000  0.77450000  0.78030000  1
  C  C217  1  0.64310000  0.39660000  0.40780000  1
  C  C218  1  0.68630000  0.36450000  0.37600000  1
  C  C219  1  0.75120000  0.31980000  0.38200000  1
  C  C220  1  0.78940000  0.29000000  0.35150000  1
  C  C221  1  0.76740000  0.30480000  0.31430000  1
  C  C222  1  0.70280000  0.34940000  0.30790000  1
  C  C223  1  0.66380000  0.37960000  0.33860000  1
  C  C224  1  0.81260000  0.27440000  0.28080000  1
  C  C225  1  0.90270000  0.27450000  0.28030000  1
  C  C226  1  0.64310000  0.10340000  0.09220000  1
  C  C227  1  0.68630000  0.13550000  0.12400000  1
  C  C228  1  0.75120000  0.18020000  0.11800000  1
  C  C229  1  0.78940000  0.21000000  0.14850000  1
  C  C230  1  0.76740000  0.19520000  0.18570000  1
  C  C231  1  0.70280000  0.15060000  0.19210000  1
  C  C232  1  0.66380000  0.12040000  0.16140000  1
  C  C233  1  0.81260000  0.22560000  0.21920000  1
  C  C234  1  0.90270000  0.22550000  0.21970000  1
  C  C235  1  0.63790000  0.29450000  0.22040000  1
  C  C236  1  0.64310000  0.60340000  0.59220000  1
  C  C237  1  0.68630000  0.63550000  0.62400000  1
  C  C238  1  0.75120000  0.68020000  0.61800000  1
  C  C239  1  0.78940000  0.71000000  0.64850000  1
  C  C240  1  0.76740000  0.69520000  0.68570000  1
  C  C241  1  0.70280000  0.65060000  0.69210000  1
  C  C242  1  0.66380000  0.62040000  0.66140000  1
  C  C243  1  0.81260000  0.72560000  0.71920000  1
  C  C244  1  0.90270000  0.72550000  0.71970000  1
  C  C245  1  0.63790000  0.79450000  0.72040000  1
  C  C246  1  0.35690000  0.10340000  0.90780000  1
  C  C247  1  0.31370000  0.13550000  0.87600000  1
  C  C248  1  0.24880000  0.18020000  0.88200000  1
  C  C249  1  0.21060000  0.21000000  0.85150000  1
  C  C250  1  0.23260000  0.19520000  0.81430000  1
  C  C251  1  0.29720000  0.15060000  0.80790000  1
  C  C252  1  0.33620000  0.12040000  0.83860000  1
  C  C253  1  0.18740000  0.22560000  0.78080000  1
  C  C254  1  0.09730000  0.22550000  0.78030000  1
  C  C255  1  0.36210000  0.29450000  0.77960000  1
  C  C256  1  0.35690000  0.60340000  0.40780000  1
  C  C257  1  0.31370000  0.63550000  0.37600000  1
  C  C258  1  0.24880000  0.68020000  0.38200000  1
  C  C259  1  0.21060000  0.71000000  0.35150000  1
  C  C260  1  0.23260000  0.69520000  0.31430000  1
  C  C261  1  0.29720000  0.65060000  0.30790000  1
  C  C262  1  0.33620000  0.62040000  0.33860000  1
  C  C263  1  0.18740000  0.72560000  0.28080000  1
  C  C264  1  0.09730000  0.72550000  0.28030000  1
  C  C265  1  0.36210000  0.79450000  0.27960000  1
  C  C266  1  0.35690000  0.89660000  0.09220000  1
  C  C267  1  0.31370000  0.86450000  0.12400000  1
  C  C268  1  0.24880000  0.81980000  0.11800000  1
  C  C269  1  0.21060000  0.79000000  0.14850000  1
  C  C270  1  0.23260000  0.80480000  0.18570000  1
  C  C271  1  0.29720000  0.84940000  0.19210000  1
  C  C272  1  0.33620000  0.87960000  0.16140000  1
  C  C273  1  0.18740000  0.77440000  0.21920000  1
  C  C274  1  0.09730000  0.77450000  0.21970000  1
  C  C275  1  0.35690000  0.39660000  0.59220000  1
  C  C276  1  0.31370000  0.36450000  0.62400000  1
  C  C277  1  0.24880000  0.31980000  0.61800000  1
  C  C278  1  0.21060000  0.29000000  0.64850000  1
  C  C279  1  0.23260000  0.30480000  0.68570000  1
  C  C280  1  0.29720000  0.34940000  0.69210000  1
  C  C281  1  0.33620000  0.37960000  0.66140000  1
  C  C282  1  0.18740000  0.27440000  0.71920000  1
  C  C283  1  0.09730000  0.27450000  0.71970000  1
  C  C284  1  0.40380000  0.30500000  0.00000000  1
  C  C285  1  0.40940000  0.37800000  0.00000000  1
  C  C286  1  0.40380000  0.80500000  0.50000000  1
  C  C287  1  0.40940000  0.87800000  0.50000000  1
  C  C288  1  0.40380000  0.69500000  0.00000000  1
  C  C289  1  0.40940000  0.62200000  0.00000000  1
  C  C290  1  0.40380000  0.19500000  0.50000000  1
  C  C291  1  0.40940000  0.12200000  0.50000000  1
  C  C292  1  0.59620000  0.69500000  0.00000000  1
  C  C293  1  0.59060000  0.62200000  0.00000000  1
  C  C294  1  0.59620000  0.19500000  0.50000000  1
  C  C295  1  0.59060000  0.12200000  0.50000000  1
  C  C296  1  0.59620000  0.30500000  0.00000000  1
  C  C297  1  0.59060000  0.37800000  0.00000000  1
  C  C298  1  0.59620000  0.80500000  0.50000000  1
  C  C299  1  0.59060000  0.87800000  0.50000000  1
  C  C300  1  0.05090000  0.25000000  0.25000000  1
  C  C301  1  0.23060000  0.25000000  0.25000000  1
  C  C302  1  0.05090000  0.75000000  0.75000000  1
  C  C303  1  0.23060000  0.75000000  0.75000000  1
  C  C304  1  0.94910000  0.75000000  0.25000000  1
  C  C305  1  0.76940000  0.75000000  0.25000000  1
  C  C306  1  0.94910000  0.25000000  0.75000000  1
  C  C307  1  0.76940000  0.25000000  0.75000000  1
  C  C308  1  0.94910000  0.75000000  0.75000000  1
  C  C309  1  0.76940000  0.75000000  0.75000000  1
  C  C310  1  0.94910000  0.25000000  0.25000000  1
  C  C311  1  0.76940000  0.25000000  0.25000000  1
  C  C312  1  0.05090000  0.25000000  0.75000000  1
  C  C313  1  0.23060000  0.25000000  0.75000000  1
  C  C314  1  0.05090000  0.75000000  0.25000000  1
  C  C315  1  0.23060000  0.75000000  0.25000000  1
  C  C316  1  0.50000000  0.20800000  0.00000000  1
  C  C317  1  0.50000000  0.27600000  0.00000000  1
  C  C318  1  0.50000000  0.40510000  0.00000000  1
  C  C319  1  0.50000000  0.47110000  0.00000000  1
  C  C320  1  0.50000000  0.70800000  0.50000000  1
  C  C321  1  0.50000000  0.77600000  0.50000000  1
  C  C322  1  0.50000000  0.90510000  0.50000000  1
  C  C323  1  0.50000000  0.97110000  0.50000000  1
  C  C324  1  0.50000000  0.79200000  0.00000000  1
  C  C325  1  0.50000000  0.72400000  0.00000000  1
  C  C326  1  0.50000000  0.59490000  0.00000000  1
  C  C327  1  0.50000000  0.52890000  0.00000000  1
  C  C328  1  0.50000000  0.29200000  0.50000000  1
  C  C329  1  0.50000000  0.22400000  0.50000000  1
  C  C330  1  0.50000000  0.09490000  0.50000000  1
  C  C331  1  0.50000000  0.02890000  0.50000000  1
  O  O332  1  0.33810000  0.11670000  0.05813000  1
  O  O333  1  0.41270000  0.06129000  0.10194000  1
  O  O334  1  0.33810000  0.61670000  0.55813000  1
  O  O335  1  0.41270000  0.56129000  0.60194000  1
  O  O336  1  0.33810000  0.88330000  0.94187000  1
  O  O337  1  0.41270000  0.93871000  0.89806000  1
  O  O338  1  0.33810000  0.38330000  0.44187000  1
  O  O339  1  0.41270000  0.43871000  0.39806000  1
  O  O340  1  0.66190000  0.88330000  0.05813000  1
  O  O341  1  0.58730000  0.93871000  0.10194000  1
  O  O342  1  0.66190000  0.38330000  0.55813000  1
  O  O343  1  0.58730000  0.43871000  0.60194000  1
  O  O344  1  0.66190000  0.11670000  0.94187000  1
  O  O345  1  0.58730000  0.06129000  0.89806000  1
  O  O346  1  0.66190000  0.61670000  0.44187000  1
  O  O347  1  0.58730000  0.56129000  0.39806000  1
  O  O348  1  0.66190000  0.88330000  0.94187000  1
  O  O349  1  0.58730000  0.93871000  0.89806000  1
  O  O350  1  0.66190000  0.38330000  0.44187000  1
  O  O351  1  0.58730000  0.43871000  0.39806000  1
  O  O352  1  0.66190000  0.11670000  0.05813000  1
  O  O353  1  0.58730000  0.06129000  0.10194000  1
  O  O354  1  0.66190000  0.61670000  0.55813000  1
  O  O355  1  0.58730000  0.56129000  0.60194000  1
  O  O356  1  0.33810000  0.11670000  0.94187000  1
  O  O357  1  0.41270000  0.06129000  0.89806000  1
  O  O358  1  0.33810000  0.61670000  0.44187000  1
  O  O359  1  0.41270000  0.56129000  0.39806000  1
  O  O360  1  0.33810000  0.88330000  0.05813000  1
  O  O361  1  0.41270000  0.93871000  0.10194000  1
  O  O362  1  0.33810000  0.38330000  0.55813000  1
  O  O363  1  0.41270000  0.43871000  0.60194000  1
  O  O364  1  0.40830000  0.18130000  0.00000000  1
  O  O365  1  0.40830000  0.68130000  0.50000000  1
  O  O366  1  0.40830000  0.81870000  0.00000000  1
  O  O367  1  0.40830000  0.31870000  0.50000000  1
  O  O368  1  0.59170000  0.81870000  0.00000000  1
  O  O369  1  0.59170000  0.31870000  0.50000000  1
  O  O370  1  0.59170000  0.18130000  0.00000000  1
  O  O371  1  0.59170000  0.68130000  0.50000000  1
  O  O372  1  0.38290000  0.00000000  0.03380000  1
  O  O373  1  0.38290000  0.50000000  0.53380000  1
  O  O374  1  0.38290000  0.00000000  0.96620000  1
  O  O375  1  0.38290000  0.50000000  0.46620000  1
  O  O376  1  0.61710000  0.00000000  0.03380000  1
  O  O377  1  0.61710000  0.50000000  0.53380000  1
  O  O378  1  0.61710000  0.00000000  0.96620000  1
  O  O379  1  0.61710000  0.50000000  0.46620000  1
  O  O380  1  0.50000000  0.08030000  0.03440000  1
  O  O381  1  0.50000000  0.58030000  0.53440000  1
  O  O382  1  0.50000000  0.91970000  0.96560000  1
  O  O383  1  0.50000000  0.41970000  0.46560000  1
  O  O384  1  0.50000000  0.91970000  0.03440000  1
  O  O385  1  0.50000000  0.41970000  0.53440000  1
  O  O386  1  0.50000000  0.08030000  0.96560000  1
  O  O387  1  0.50000000  0.58030000  0.46560000  1
  O  O388  1  0.32280000  0.25000000  0.25000000  1
  O  O389  1  0.32280000  0.75000000  0.75000000  1
  O  O390  1  0.67720000  0.75000000  0.25000000  1
  O  O391  1  0.67720000  0.25000000  0.75000000  1
  O  O392  1  0.67720000  0.75000000  0.75000000  1
  O  O393  1  0.67720000  0.25000000  0.25000000  1
  O  O394  1  0.32280000  0.25000000  0.75000000  1
  O  O395  1  0.32280000  0.75000000  0.25000000  1
