# generated using pymatgen
data_Zr3H34C53O16
_symmetry_space_group_name_H-M   'P 1'
_cell_length_a   14.87060000
_cell_length_b   23.25060000
_cell_length_c   34.10880000
_cell_angle_alpha   90.00000000
_cell_angle_beta   90.00000000
_cell_angle_gamma   90.00000000
_symmetry_Int_Tables_number   1
_chemical_formula_structural   Zr3H34C53O16
_chemical_formula_sum   'Zr12 H136 C212 O64'
_cell_volume   11793.13030075
_cell_formula_units_Z   4
loop_
 _symmetry_equiv_pos_site_id
 _symmetry_equiv_pos_as_xyz
  1  'x, y, z'
loop_
 _atom_site_type_symbol
 _atom_site_label
 _atom_site_symmetry_multiplicity
 _atom_site_fract_x
 _atom_site_fract_y
 _atom_site_fract_z
 _atom_site_occupancy
  Zr  Zr0  1  0.38225000  0.07629000  0.00000000  1
  Zr  Zr1  1  0.38225000  0.57629000  0.50000000  1
  Zr  Zr2  1  0.38225000  0.92371000  0.00000000  1
  Zr  Zr3  1  0.38225000  0.42371000  0.50000000  1
  Zr  Zr4  1  0.61775000  0.92371000  0.00000000  1
  Zr  Zr5  1  0.61775000  0.42371000  0.50000000  1
  Zr  Zr6  1  0.61775000  0.07629000  0.00000000  1
  Zr  Zr7  1  0.61775000  0.57629000  0.50000000  1
  Zr  Zr8  1  0.50000000  1.00000000  0.07163000  1
  Zr  Zr9  1  0.50000000  0.50000000  0.57163000  1
  Zr  Zr10  1  0.50000000  1.00000000  0.92837000  1
  Zr  Zr11  1  0.50000000  0.50000000  0.42837000  1
  H  H12  1  0.23370000  0.17890000  0.09180000  1
  H  H13  1  0.32030000  0.14460000  0.22070000  1
  H  H14  1  0.06640000  0.20810000  0.19850000  1
  H  H15  1  0.38670000  0.09290000  0.16990000  1
  H  H16  1  0.16840000  0.23090000  0.14340000  1
  H  H17  1  0.38850000  0.26560000  0.19370000  1
  H  H18  1  0.43150000  0.30590000  0.22670000  1
  H  H19  1  0.33390000  0.32010000  0.20950000  1
  H  H20  1  0.23370000  0.67890000  0.59180000  1
  H  H21  1  0.32030000  0.64460000  0.72070000  1
  H  H22  1  0.06640000  0.70810000  0.69850000  1
  H  H23  1  0.38670000  0.59290000  0.66990000  1
  H  H24  1  0.16840000  0.73090000  0.64340000  1
  H  H25  1  0.38850000  0.76560000  0.69370000  1
  H  H26  1  0.43150000  0.80590000  0.72670000  1
  H  H27  1  0.33390000  0.82010000  0.70950000  1
  H  H28  1  0.23370000  0.82110000  0.90820000  1
  H  H29  1  0.32030000  0.85540000  0.77930000  1
  H  H30  1  0.06640000  0.79190000  0.80150000  1
  H  H31  1  0.38670000  0.90710000  0.83010000  1
  H  H32  1  0.16840000  0.76910000  0.85660000  1
  H  H33  1  0.23370000  0.32110000  0.40820000  1
  H  H34  1  0.32030000  0.35540000  0.27930000  1
  H  H35  1  0.06640000  0.29190000  0.30150000  1
  H  H36  1  0.38670000  0.40710000  0.33010000  1
  H  H37  1  0.16840000  0.26910000  0.35660000  1
  H  H38  1  0.76630000  0.82110000  0.09180000  1
  H  H39  1  0.67970000  0.85540000  0.22070000  1
  H  H40  1  0.93360000  0.79190000  0.19850000  1
  H  H41  1  0.61330000  0.90710000  0.16990000  1
  H  H42  1  0.83160000  0.76910000  0.14340000  1
  H  H43  1  0.76630000  0.32110000  0.59180000  1
  H  H44  1  0.67970000  0.35540000  0.72070000  1
  H  H45  1  0.93360000  0.29190000  0.69850000  1
  H  H46  1  0.61330000  0.40710000  0.66990000  1
  H  H47  1  0.83160000  0.26910000  0.64340000  1
  H  H48  1  0.61150000  0.23440000  0.69370000  1
  H  H49  1  0.56850000  0.19410000  0.72670000  1
  H  H50  1  0.66610000  0.17990000  0.70950000  1
  H  H51  1  0.76630000  0.17890000  0.90820000  1
  H  H52  1  0.67970000  0.14460000  0.77930000  1
  H  H53  1  0.93360000  0.20810000  0.80150000  1
  H  H54  1  0.61330000  0.09290000  0.83010000  1
  H  H55  1  0.83160000  0.23090000  0.85660000  1
  H  H56  1  0.76630000  0.67890000  0.40820000  1
  H  H57  1  0.67970000  0.64460000  0.27930000  1
  H  H58  1  0.93360000  0.70810000  0.30150000  1
  H  H59  1  0.61330000  0.59290000  0.33010000  1
  H  H60  1  0.83160000  0.73090000  0.35660000  1
  H  H61  1  0.61150000  0.76560000  0.30630000  1
  H  H62  1  0.56850000  0.80590000  0.27330000  1
  H  H63  1  0.66610000  0.82010000  0.29050000  1
  H  H64  1  0.76630000  0.82110000  0.90820000  1
  H  H65  1  0.67970000  0.85540000  0.77930000  1
  H  H66  1  0.93360000  0.79190000  0.80150000  1
  H  H67  1  0.61330000  0.90710000  0.83010000  1
  H  H68  1  0.83160000  0.76910000  0.85660000  1
  H  H69  1  0.76630000  0.32110000  0.40820000  1
  H  H70  1  0.67970000  0.35540000  0.27930000  1
  H  H71  1  0.93360000  0.29190000  0.30150000  1
  H  H72  1  0.61330000  0.40710000  0.33010000  1
  H  H73  1  0.83160000  0.26910000  0.35660000  1
  H  H74  1  0.61150000  0.23440000  0.30630000  1
  H  H75  1  0.56850000  0.19410000  0.27330000  1
  H  H76  1  0.66610000  0.17990000  0.29050000  1
  H  H77  1  0.76630000  0.17890000  0.09180000  1
  H  H78  1  0.67970000  0.14460000  0.22070000  1
  H  H79  1  0.93360000  0.20810000  0.19850000  1
  H  H80  1  0.61330000  0.09290000  0.16990000  1
  H  H81  1  0.83160000  0.23090000  0.14340000  1
  H  H82  1  0.76630000  0.67890000  0.59180000  1
  H  H83  1  0.67970000  0.64460000  0.72070000  1
  H  H84  1  0.93360000  0.70810000  0.69850000  1
  H  H85  1  0.61330000  0.59290000  0.66990000  1
  H  H86  1  0.83160000  0.73090000  0.64340000  1
  H  H87  1  0.61150000  0.76560000  0.69370000  1
  H  H88  1  0.56850000  0.80590000  0.72670000  1
  H  H89  1  0.66610000  0.82010000  0.70950000  1
  H  H90  1  0.23370000  0.17890000  0.90820000  1
  H  H91  1  0.32030000  0.14460000  0.77930000  1
  H  H92  1  0.06640000  0.20810000  0.80150000  1
  H  H93  1  0.38670000  0.09290000  0.83010000  1
  H  H94  1  0.16840000  0.23090000  0.85660000  1
  H  H95  1  0.23370000  0.67890000  0.40820000  1
  H  H96  1  0.32030000  0.64460000  0.27930000  1
  H  H97  1  0.06640000  0.70810000  0.30150000  1
  H  H98  1  0.38670000  0.59290000  0.33010000  1
  H  H99  1  0.16840000  0.73090000  0.35660000  1
  H  H100  1  0.23370000  0.82110000  0.09180000  1
  H  H101  1  0.32030000  0.85540000  0.22070000  1
  H  H102  1  0.06640000  0.79190000  0.19850000  1
  H  H103  1  0.38670000  0.90710000  0.16990000  1
  H  H104  1  0.16840000  0.76910000  0.14340000  1
  H  H105  1  0.38850000  0.73440000  0.19370000  1
  H  H106  1  0.43150000  0.69410000  0.22670000  1
  H  H107  1  0.33390000  0.67990000  0.20950000  1
  H  H108  1  0.23370000  0.32110000  0.59180000  1
  H  H109  1  0.32030000  0.35540000  0.72070000  1
  H  H110  1  0.06640000  0.29190000  0.69850000  1
  H  H111  1  0.38670000  0.40710000  0.66990000  1
  H  H112  1  0.16840000  0.26910000  0.64340000  1
  H  H113  1  0.38850000  0.23440000  0.69370000  1
  H  H114  1  0.43150000  0.19410000  0.72670000  1
  H  H115  1  0.33390000  0.17990000  0.70950000  1
  H  H116  1  0.36450000  0.26570000  0.00000000  1
  H  H117  1  0.36460000  0.36490000  0.00000000  1
  H  H118  1  0.36450000  0.76570000  0.50000000  1
  H  H119  1  0.36460000  0.86490000  0.50000000  1
  H  H120  1  0.36450000  0.73430000  0.00000000  1
  H  H121  1  0.36460000  0.63510000  0.00000000  1
  H  H122  1  0.36450000  0.23430000  0.50000000  1
  H  H123  1  0.36460000  0.13510000  0.50000000  1
  H  H124  1  0.63550000  0.73430000  0.00000000  1
  H  H125  1  0.63540000  0.63510000  0.00000000  1
  H  H126  1  0.63550000  0.23430000  0.50000000  1
  H  H127  1  0.63540000  0.13510000  0.50000000  1
  H  H128  1  0.63550000  0.26570000  0.00000000  1
  H  H129  1  0.63540000  0.36490000  0.00000000  1
  H  H130  1  0.63550000  0.76570000  0.50000000  1
  H  H131  1  0.63540000  0.86490000  0.50000000  1
  H  H132  1  0.55451000  0.91673000  0.54858000  1
  H  H133  1  0.45588000  0.92050000  0.58210000  1
  H  H134  1  0.53265000  0.98336000  0.57731000  1
  H  H135  1  0.42719000  0.04011000  0.44344000  1
  H  H136  1  0.52582000  0.03633000  0.40993000  1
  H  H137  1  0.50395000  0.10296000  0.43865000  1
  H  H138  1  0.60569000  0.94483000  0.45319000  1
  H  H139  1  0.39431000  0.05517000  0.54681000  1
  H  H140  1  0.60569000  0.44483000  0.95319000  1
  H  H141  1  0.42719000  0.54011000  0.94344000  1
  H  H142  1  0.52582000  0.53633000  0.90993000  1
  H  H143  1  0.50395000  0.60296000  0.93865000  1
  H  H144  1  0.39431000  0.55517000  0.04681000  1
  H  H145  1  0.55451000  0.41673000  0.04858000  1
  H  H146  1  0.45588000  0.42050000  0.08210000  1
  H  H147  1  0.53265000  0.48336000  0.07731000  1
  C  C148  1  0.31433000  0.13078000  0.12597000  1
  C  C149  1  0.35658000  0.09657000  0.09354000  1
  C  C150  1  0.25127000  0.17152000  0.11807000  1
  C  C151  1  0.30210000  0.15150000  0.19447000  1
  C  C152  1  0.09811000  0.22482000  0.21977000  1
  C  C153  1  0.19187000  0.22332000  0.21972000  1
  C  C154  1  0.34154000  0.12065000  0.16438000  1
  C  C155  1  0.23765000  0.19167000  0.18711000  1
  C  C156  1  0.21240000  0.20240000  0.14883000  1
  C  C157  1  0.37550000  0.28920000  0.21680000  1
  C  C158  1  0.44040000  0.47010000  0.02640000  1
  C  C159  1  0.31433000  0.63078000  0.62597000  1
  C  C160  1  0.35658000  0.59657000  0.59354000  1
  C  C161  1  0.25127000  0.67152000  0.61807000  1
  C  C162  1  0.30210000  0.65150000  0.69447000  1
  C  C163  1  0.09811000  0.72482000  0.71977000  1
  C  C164  1  0.19187000  0.72332000  0.71972000  1
  C  C165  1  0.34154000  0.62065000  0.66438000  1
  C  C166  1  0.23765000  0.69167000  0.68711000  1
  C  C167  1  0.21240000  0.70240000  0.64883000  1
  C  C168  1  0.37550000  0.78920000  0.71680000  1
  C  C169  1  0.44040000  0.97010000  0.52640000  1
  C  C170  1  0.31433000  0.86922000  0.87403000  1
  C  C171  1  0.35658000  0.90343000  0.90646000  1
  C  C172  1  0.25127000  0.82848000  0.88193000  1
  C  C173  1  0.30210000  0.84850000  0.80553000  1
  C  C174  1  0.09811000  0.77518000  0.78023000  1
  C  C175  1  0.19187000  0.77668000  0.78028000  1
  C  C176  1  0.34154000  0.87935000  0.83562000  1
  C  C177  1  0.23765000  0.80833000  0.81289000  1
  C  C178  1  0.21240000  0.79760000  0.85117000  1
  C  C179  1  0.31433000  0.36922000  0.37403000  1
  C  C180  1  0.35658000  0.40343000  0.40646000  1
  C  C181  1  0.25127000  0.32848000  0.38193000  1
  C  C182  1  0.30210000  0.34850000  0.30553000  1
  C  C183  1  0.09811000  0.27518000  0.28023000  1
  C  C184  1  0.19187000  0.27668000  0.28028000  1
  C  C185  1  0.34154000  0.37935000  0.33562000  1
  C  C186  1  0.23765000  0.30833000  0.31289000  1
  C  C187  1  0.21240000  0.29760000  0.35117000  1
  C  C188  1  0.68567000  0.86922000  0.12597000  1
  C  C189  1  0.64342000  0.90343000  0.09354000  1
  C  C190  1  0.74873000  0.82848000  0.11807000  1
  C  C191  1  0.69790000  0.84850000  0.19447000  1
  C  C192  1  0.90189000  0.77518000  0.21977000  1
  C  C193  1  0.80813000  0.77668000  0.21972000  1
  C  C194  1  0.65846000  0.87935000  0.16438000  1
  C  C195  1  0.76235000  0.80833000  0.18711000  1
  C  C196  1  0.78760000  0.79760000  0.14883000  1
  C  C197  1  0.68567000  0.36922000  0.62597000  1
  C  C198  1  0.64342000  0.40343000  0.59354000  1
  C  C199  1  0.74873000  0.32848000  0.61807000  1
  C  C200  1  0.69790000  0.34850000  0.69447000  1
  C  C201  1  0.90189000  0.27518000  0.71977000  1
  C  C202  1  0.80813000  0.27668000  0.71972000  1
  C  C203  1  0.65846000  0.37935000  0.66438000  1
  C  C204  1  0.76235000  0.30833000  0.68711000  1
  C  C205  1  0.78760000  0.29760000  0.64883000  1
  C  C206  1  0.62450000  0.21080000  0.71680000  1
  C  C207  1  0.68567000  0.13078000  0.87403000  1
  C  C208  1  0.64342000  0.09657000  0.90646000  1
  C  C209  1  0.74873000  0.17152000  0.88193000  1
  C  C210  1  0.69790000  0.15150000  0.80553000  1
  C  C211  1  0.90189000  0.22482000  0.78023000  1
  C  C212  1  0.80813000  0.22332000  0.78028000  1
  C  C213  1  0.65846000  0.12065000  0.83562000  1
  C  C214  1  0.76235000  0.19167000  0.81289000  1
  C  C215  1  0.78760000  0.20240000  0.85117000  1
  C  C216  1  0.55960000  0.47010000  0.97360000  1
  C  C217  1  0.68567000  0.63078000  0.37403000  1
  C  C218  1  0.64342000  0.59657000  0.40646000  1
  C  C219  1  0.74873000  0.67152000  0.38193000  1
  C  C220  1  0.69790000  0.65150000  0.30553000  1
  C  C221  1  0.90189000  0.72482000  0.28023000  1
  C  C222  1  0.80813000  0.72332000  0.28028000  1
  C  C223  1  0.65846000  0.62065000  0.33562000  1
  C  C224  1  0.76235000  0.69167000  0.31289000  1
  C  C225  1  0.78760000  0.70240000  0.35117000  1
  C  C226  1  0.62450000  0.78920000  0.28320000  1
  C  C227  1  0.55960000  0.97010000  0.47360000  1
  C  C228  1  0.68567000  0.86922000  0.87403000  1
  C  C229  1  0.64342000  0.90343000  0.90646000  1
  C  C230  1  0.74873000  0.82848000  0.88193000  1
  C  C231  1  0.69790000  0.84850000  0.80553000  1
  C  C232  1  0.90189000  0.77518000  0.78023000  1
  C  C233  1  0.80813000  0.77668000  0.78028000  1
  C  C234  1  0.65846000  0.87935000  0.83562000  1
  C  C235  1  0.76235000  0.80833000  0.81289000  1
  C  C236  1  0.78760000  0.79760000  0.85117000  1
  C  C237  1  0.55960000  0.52990000  0.97360000  1
  C  C238  1  0.68567000  0.36922000  0.37403000  1
  C  C239  1  0.64342000  0.40343000  0.40646000  1
  C  C240  1  0.74873000  0.32848000  0.38193000  1
  C  C241  1  0.69790000  0.34850000  0.30553000  1
  C  C242  1  0.90189000  0.27518000  0.28023000  1
  C  C243  1  0.80813000  0.27668000  0.28028000  1
  C  C244  1  0.65846000  0.37935000  0.33562000  1
  C  C245  1  0.76235000  0.30833000  0.31289000  1
  C  C246  1  0.78760000  0.29760000  0.35117000  1
  C  C247  1  0.62450000  0.21080000  0.28320000  1
  C  C248  1  0.55960000  0.02990000  0.47360000  1
  C  C249  1  0.68567000  0.13078000  0.12597000  1
  C  C250  1  0.64342000  0.09657000  0.09354000  1
  C  C251  1  0.74873000  0.17152000  0.11807000  1
  C  C252  1  0.69790000  0.15150000  0.19447000  1
  C  C253  1  0.90189000  0.22482000  0.21977000  1
  C  C254  1  0.80813000  0.22332000  0.21972000  1
  C  C255  1  0.65846000  0.12065000  0.16438000  1
  C  C256  1  0.76235000  0.19167000  0.18711000  1
  C  C257  1  0.78760000  0.20240000  0.14883000  1
  C  C258  1  0.68567000  0.63078000  0.62597000  1
  C  C259  1  0.64342000  0.59657000  0.59354000  1
  C  C260  1  0.74873000  0.67152000  0.61807000  1
  C  C261  1  0.69790000  0.65150000  0.69447000  1
  C  C262  1  0.90189000  0.72482000  0.71977000  1
  C  C263  1  0.80813000  0.72332000  0.71972000  1
  C  C264  1  0.65846000  0.62065000  0.66438000  1
  C  C265  1  0.76235000  0.69167000  0.68711000  1
  C  C266  1  0.78760000  0.70240000  0.64883000  1
  C  C267  1  0.62450000  0.78920000  0.71680000  1
  C  C268  1  0.31433000  0.13078000  0.87403000  1
  C  C269  1  0.35658000  0.09657000  0.90646000  1
  C  C270  1  0.25127000  0.17152000  0.88193000  1
  C  C271  1  0.30210000  0.15150000  0.80553000  1
  C  C272  1  0.09811000  0.22482000  0.78023000  1
  C  C273  1  0.19187000  0.22332000  0.78028000  1
  C  C274  1  0.34154000  0.12065000  0.83562000  1
  C  C275  1  0.23765000  0.19167000  0.81289000  1
  C  C276  1  0.21240000  0.20240000  0.85117000  1
  C  C277  1  0.31433000  0.63078000  0.37403000  1
  C  C278  1  0.35658000  0.59657000  0.40646000  1
  C  C279  1  0.25127000  0.67152000  0.38193000  1
  C  C280  1  0.30210000  0.65150000  0.30553000  1
  C  C281  1  0.09811000  0.72482000  0.28023000  1
  C  C282  1  0.19187000  0.72332000  0.28028000  1
  C  C283  1  0.34154000  0.62065000  0.33562000  1
  C  C284  1  0.23765000  0.69167000  0.31289000  1
  C  C285  1  0.21240000  0.70240000  0.35117000  1
  C  C286  1  0.31433000  0.86922000  0.12597000  1
  C  C287  1  0.35658000  0.90343000  0.09354000  1
  C  C288  1  0.25127000  0.82848000  0.11807000  1
  C  C289  1  0.30210000  0.84850000  0.19447000  1
  C  C290  1  0.09811000  0.77518000  0.21977000  1
  C  C291  1  0.19187000  0.77668000  0.21972000  1
  C  C292  1  0.34154000  0.87935000  0.16438000  1
  C  C293  1  0.23765000  0.80833000  0.18711000  1
  C  C294  1  0.21240000  0.79760000  0.14883000  1
  C  C295  1  0.37550000  0.71080000  0.21680000  1
  C  C296  1  0.44040000  0.52990000  0.02640000  1
  C  C297  1  0.31433000  0.36922000  0.62597000  1
  C  C298  1  0.35658000  0.40343000  0.59354000  1
  C  C299  1  0.25127000  0.32848000  0.61807000  1
  C  C300  1  0.30210000  0.34850000  0.69447000  1
  C  C301  1  0.09811000  0.27518000  0.71977000  1
  C  C302  1  0.19187000  0.27668000  0.71972000  1
  C  C303  1  0.34154000  0.37935000  0.66438000  1
  C  C304  1  0.23765000  0.30833000  0.68711000  1
  C  C305  1  0.21240000  0.29760000  0.64883000  1
  C  C306  1  0.37550000  0.21080000  0.71680000  1
  C  C307  1  0.44040000  0.02990000  0.52640000  1
  C  C308  1  0.42000000  0.28600000  0.00000000  1
  C  C309  1  0.42030000  0.34490000  0.00000000  1
  C  C310  1  0.42000000  0.78600000  0.50000000  1
  C  C311  1  0.42030000  0.84490000  0.50000000  1
  C  C312  1  0.42000000  0.71400000  0.00000000  1
  C  C313  1  0.42030000  0.65510000  0.00000000  1
  C  C314  1  0.42000000  0.21400000  0.50000000  1
  C  C315  1  0.42030000  0.15510000  0.50000000  1
  C  C316  1  0.58000000  0.71400000  0.00000000  1
  C  C317  1  0.57970000  0.65510000  0.00000000  1
  C  C318  1  0.58000000  0.21400000  0.50000000  1
  C  C319  1  0.57970000  0.15510000  0.50000000  1
  C  C320  1  0.58000000  0.28600000  0.00000000  1
  C  C321  1  0.57970000  0.34490000  0.00000000  1
  C  C322  1  0.58000000  0.78600000  0.50000000  1
  C  C323  1  0.57970000  0.84490000  0.50000000  1
  C  C324  1  0.50000000  0.44600000  0.06100000  1
  C  C325  1  0.50000000  0.94600000  0.56100000  1
  C  C326  1  0.50000000  0.55400000  0.93900000  1
  C  C327  1  0.50000000  0.05400000  0.43900000  1
  C  C328  1  0.04990000  0.25000000  0.25000000  1
  C  C329  1  0.23830000  0.25000000  0.25000000  1
  C  C330  1  0.04990000  0.75000000  0.75000000  1
  C  C331  1  0.23830000  0.75000000  0.75000000  1
  C  C332  1  0.95010000  0.75000000  0.25000000  1
  C  C333  1  0.76170000  0.75000000  0.25000000  1
  C  C334  1  0.95010000  0.25000000  0.75000000  1
  C  C335  1  0.76170000  0.25000000  0.75000000  1
  C  C336  1  0.95010000  0.75000000  0.75000000  1
  C  C337  1  0.76170000  0.75000000  0.75000000  1
  C  C338  1  0.95010000  0.25000000  0.25000000  1
  C  C339  1  0.76170000  0.25000000  0.25000000  1
  C  C340  1  0.04990000  0.25000000  0.75000000  1
  C  C341  1  0.23830000  0.25000000  0.75000000  1
  C  C342  1  0.04990000  0.75000000  0.25000000  1
  C  C343  1  0.23830000  0.75000000  0.25000000  1
  C  C344  1  0.50000000  0.25620000  0.00000000  1
  C  C345  1  0.50000000  0.19177000  0.00000000  1
  C  C346  1  0.50000000  0.37600000  0.00000000  1
  C  C347  1  0.50000000  0.44000000  0.00000000  1
  C  C348  1  0.50000000  0.75620000  0.50000000  1
  C  C349  1  0.50000000  0.69177000  0.50000000  1
  C  C350  1  0.50000000  0.87600000  0.50000000  1
  C  C351  1  0.50000000  0.94000000  0.50000000  1
  C  C352  1  0.50000000  0.74380000  0.00000000  1
  C  C353  1  0.50000000  0.80823000  0.00000000  1
  C  C354  1  0.50000000  0.62400000  0.00000000  1
  C  C355  1  0.50000000  0.56000000  0.00000000  1
  C  C356  1  0.50000000  0.24380000  0.50000000  1
  C  C357  1  0.50000000  0.30823000  0.50000000  1
  C  C358  1  0.50000000  0.12400000  0.50000000  1
  C  C359  1  0.50000000  0.06000000  0.50000000  1
  O  O360  1  0.41008000  0.05710000  0.10438000  1
  O  O361  1  0.33548000  0.10883000  0.05889000  1
  O  O362  1  0.41008000  0.55710000  0.60438000  1
  O  O363  1  0.33548000  0.60883000  0.55889000  1
  O  O364  1  0.41008000  0.94290000  0.89562000  1
  O  O365  1  0.33548000  0.89117000  0.94111000  1
  O  O366  1  0.41008000  0.44290000  0.39562000  1
  O  O367  1  0.33548000  0.39117000  0.44111000  1
  O  O368  1  0.58992000  0.94290000  0.10438000  1
  O  O369  1  0.66452000  0.89117000  0.05889000  1
  O  O370  1  0.58992000  0.44290000  0.60438000  1
  O  O371  1  0.66452000  0.39117000  0.55889000  1
  O  O372  1  0.58992000  0.05710000  0.89562000  1
  O  O373  1  0.66452000  0.10883000  0.94111000  1
  O  O374  1  0.58992000  0.55710000  0.39562000  1
  O  O375  1  0.66452000  0.60883000  0.44111000  1
  O  O376  1  0.58992000  0.94290000  0.89562000  1
  O  O377  1  0.66452000  0.89117000  0.94111000  1
  O  O378  1  0.58992000  0.44290000  0.39562000  1
  O  O379  1  0.66452000  0.39117000  0.44111000  1
  O  O380  1  0.58992000  0.05710000  0.10438000  1
  O  O381  1  0.66452000  0.10883000  0.05889000  1
  O  O382  1  0.58992000  0.55710000  0.60438000  1
  O  O383  1  0.66452000  0.60883000  0.55889000  1
  O  O384  1  0.41008000  0.05710000  0.89562000  1
  O  O385  1  0.33548000  0.10883000  0.94111000  1
  O  O386  1  0.41008000  0.55710000  0.39562000  1
  O  O387  1  0.33548000  0.60883000  0.44111000  1
  O  O388  1  0.41008000  0.94290000  0.10438000  1
  O  O389  1  0.33548000  0.89117000  0.05889000  1
  O  O390  1  0.41008000  0.44290000  0.60438000  1
  O  O391  1  0.33548000  0.39117000  0.55889000  1
  O  O392  1  0.42135000  0.16762000  0.00000000  1
  O  O393  1  0.42135000  0.66762000  0.50000000  1
  O  O394  1  0.42135000  0.83238000  0.00000000  1
  O  O395  1  0.42135000  0.33238000  0.50000000  1
  O  O396  1  0.57865000  0.83238000  0.00000000  1
  O  O397  1  0.57865000  0.33238000  0.50000000  1
  O  O398  1  0.57865000  0.16762000  0.00000000  1
  O  O399  1  0.57865000  0.66762000  0.50000000  1
  O  O400  1  0.37970000  1.00000000  0.03496000  1
  O  O401  1  0.37970000  0.50000000  0.53496000  1
  O  O402  1  0.37970000  1.00000000  0.96504000  1
  O  O403  1  0.37970000  0.50000000  0.46504000  1
  O  O404  1  0.62030000  1.00000000  0.03496000  1
  O  O405  1  0.62030000  0.50000000  0.53496000  1
  O  O406  1  0.62030000  1.00000000  0.96504000  1
  O  O407  1  0.62030000  0.50000000  0.46504000  1
  O  O408  1  0.50000000  0.07415000  0.03537000  1
  O  O409  1  0.50000000  0.57415000  0.53537000  1
  O  O410  1  0.50000000  0.92585000  0.96463000  1
  O  O411  1  0.50000000  0.42585000  0.46463000  1
  O  O412  1  0.50000000  0.92585000  0.03537000  1
  O  O413  1  0.50000000  0.42585000  0.53537000  1
  O  O414  1  0.50000000  0.07415000  0.96463000  1
  O  O415  1  0.50000000  0.57415000  0.46463000  1
  O  O416  1  0.33079000  0.25000000  0.25000000  1
  O  O417  1  0.33079000  0.75000000  0.75000000  1
  O  O418  1  0.66921000  0.75000000  0.25000000  1
  O  O419  1  0.66921000  0.25000000  0.75000000  1
  O  O420  1  0.66921000  0.75000000  0.75000000  1
  O  O421  1  0.66921000  0.25000000  0.25000000  1
  O  O422  1  0.33079000  0.25000000  0.75000000  1
  O  O423  1  0.33079000  0.75000000  0.25000000  1
