# generated using pymatgen
data_Zr3H4C12(SO6)2
_symmetry_space_group_name_H-M   'P 1'
_cell_length_a   27.32967709
_cell_length_b   27.32967709
_cell_length_c   27.32967709
_cell_angle_alpha   60.00000000
_cell_angle_beta   60.00000000
_cell_angle_gamma   60.00000000
_symmetry_Int_Tables_number   1
_chemical_formula_structural   Zr3H4C12(SO6)2
_chemical_formula_sum   'Zr36 H48 C144 S24 O144'
_cell_volume   14434.05990625
_cell_formula_units_Z   12
loop_
 _symmetry_equiv_pos_site_id
 _symmetry_equiv_pos_as_xyz
  1  'x, y, z'
loop_
 _atom_site_type_symbol
 _atom_site_label
 _atom_site_symmetry_multiplicity
 _atom_site_fract_x
 _atom_site_fract_y
 _atom_site_fract_z
 _atom_site_occupancy
  C  C0  1  0.82580000  0.47900000  0.05820000  1
  C  C1  1  0.76650000  0.48430000  0.07510000  1
  C  C2  1  0.72080000  0.48340000  0.12640000  1
  C  C3  1  0.94180000  0.17420000  0.36300000  1
  C  C4  1  0.92490000  0.23350000  0.32590000  1
  C  C5  1  0.87360000  0.27920000  0.33060000  1
  C  C6  1  0.63700000  0.05820000  0.47900000  1
  C  C7  1  0.67410000  0.07510000  0.48430000  1
  C  C8  1  0.66940000  0.12640000  0.48340000  1
  C  C9  1  0.52100000  0.36300000  0.17420000  1
  C  C10  1  0.51570000  0.32590000  0.23350000  1
  C  C11  1  0.51660000  0.33060000  0.27920000  1
  C  C12  1  0.47900000  0.82580000  0.63700000  1
  C  C13  1  0.48430000  0.76650000  0.67410000  1
  C  C14  1  0.48340000  0.72080000  0.66940000  1
  C  C15  1  0.36300000  0.52100000  0.94180000  1
  C  C16  1  0.32590000  0.51570000  0.92490000  1
  C  C17  1  0.33060000  0.51660000  0.87360000  1
  C  C18  1  0.05820000  0.63700000  0.82580000  1
  C  C19  1  0.07510000  0.67410000  0.76650000  1
  C  C20  1  0.12640000  0.66940000  0.72080000  1
  C  C21  1  0.17420000  0.94180000  0.52100000  1
  C  C22  1  0.23350000  0.92490000  0.51570000  1
  C  C23  1  0.27920000  0.87360000  0.51660000  1
  C  C24  1  0.47900000  0.05820000  0.82580000  1
  C  C25  1  0.48430000  0.07510000  0.76650000  1
  C  C26  1  0.48340000  0.12640000  0.72080000  1
  C  C27  1  0.17420000  0.52100000  0.36300000  1
  C  C28  1  0.23350000  0.51570000  0.32590000  1
  C  C29  1  0.27920000  0.51660000  0.33060000  1
  C  C30  1  0.63700000  0.82580000  0.05820000  1
  C  C31  1  0.67410000  0.76650000  0.07510000  1
  C  C32  1  0.66940000  0.72080000  0.12640000  1
  C  C33  1  0.94180000  0.36300000  0.52100000  1
  C  C34  1  0.92490000  0.32590000  0.51570000  1
  C  C35  1  0.87360000  0.33060000  0.51660000  1
  C  C36  1  0.05820000  0.47900000  0.63700000  1
  C  C37  1  0.07510000  0.48430000  0.67410000  1
  C  C38  1  0.12640000  0.48340000  0.66940000  1
  C  C39  1  0.36300000  0.94180000  0.17420000  1
  C  C40  1  0.32590000  0.92490000  0.23350000  1
  C  C41  1  0.33060000  0.87360000  0.27920000  1
  C  C42  1  0.82580000  0.63700000  0.47900000  1
  C  C43  1  0.76650000  0.67410000  0.48430000  1
  C  C44  1  0.72080000  0.66940000  0.48340000  1
  C  C45  1  0.52100000  0.17420000  0.94180000  1
  C  C46  1  0.51570000  0.23350000  0.92490000  1
  C  C47  1  0.51660000  0.27920000  0.87360000  1
  C  C48  1  0.05820000  0.82580000  0.47900000  1
  C  C49  1  0.07510000  0.76650000  0.48430000  1
  C  C50  1  0.12640000  0.72080000  0.48340000  1
  C  C51  1  0.82580000  0.05820000  0.63700000  1
  C  C52  1  0.76650000  0.07510000  0.67410000  1
  C  C53  1  0.72080000  0.12640000  0.66940000  1
  C  C54  1  0.36300000  0.17420000  0.52100000  1
  C  C55  1  0.32590000  0.23350000  0.51570000  1
  C  C56  1  0.33060000  0.27920000  0.51660000  1
  C  C57  1  0.47900000  0.63700000  0.05820000  1
  C  C58  1  0.48430000  0.67410000  0.07510000  1
  C  C59  1  0.48340000  0.66940000  0.12640000  1
  C  C60  1  0.94180000  0.52100000  0.17420000  1
  C  C61  1  0.92490000  0.51570000  0.23350000  1
  C  C62  1  0.87360000  0.51660000  0.27920000  1
  C  C63  1  0.63700000  0.47900000  0.82580000  1
  C  C64  1  0.67410000  0.48430000  0.76650000  1
  C  C65  1  0.66940000  0.48340000  0.72080000  1
  C  C66  1  0.17420000  0.36300000  0.94180000  1
  C  C67  1  0.23350000  0.32590000  0.92490000  1
  C  C68  1  0.27920000  0.33060000  0.87360000  1
  C  C69  1  0.52100000  0.94180000  0.36300000  1
  C  C70  1  0.51570000  0.92490000  0.32590000  1
  C  C71  1  0.51660000  0.87360000  0.33060000  1
  C  C72  1  0.17420000  0.52100000  0.94180000  1
  C  C73  1  0.23350000  0.51570000  0.92490000  1
  C  C74  1  0.27920000  0.51660000  0.87360000  1
  C  C75  1  0.05820000  0.82580000  0.63700000  1
  C  C76  1  0.07510000  0.76650000  0.67410000  1
  C  C77  1  0.12640000  0.72080000  0.66940000  1
  C  C78  1  0.36300000  0.94180000  0.52100000  1
  C  C79  1  0.32590000  0.92490000  0.51570000  1
  C  C80  1  0.33060000  0.87360000  0.51660000  1
  C  C81  1  0.47900000  0.63700000  0.82580000  1
  C  C82  1  0.48430000  0.67410000  0.76650000  1
  C  C83  1  0.48340000  0.66940000  0.72080000  1
  C  C84  1  0.52100000  0.17420000  0.36300000  1
  C  C85  1  0.51570000  0.23350000  0.32590000  1
  C  C86  1  0.51660000  0.27920000  0.33060000  1
  C  C87  1  0.63700000  0.47900000  0.05820000  1
  C  C88  1  0.67410000  0.48430000  0.07510000  1
  C  C89  1  0.66940000  0.48340000  0.12640000  1
  C  C90  1  0.94180000  0.36300000  0.17420000  1
  C  C91  1  0.92490000  0.32590000  0.23350000  1
  C  C92  1  0.87360000  0.33060000  0.27920000  1
  C  C93  1  0.82580000  0.05820000  0.47900000  1
  C  C94  1  0.76650000  0.07510000  0.48430000  1
  C  C95  1  0.72080000  0.12640000  0.48340000  1
  C  C96  1  0.52100000  0.94180000  0.17420000  1
  C  C97  1  0.51570000  0.92490000  0.23350000  1
  C  C98  1  0.51660000  0.87360000  0.27920000  1
  C  C99  1  0.82580000  0.47900000  0.63700000  1
  C  C100  1  0.76650000  0.48430000  0.67410000  1
  C  C101  1  0.72080000  0.48340000  0.66940000  1
  C  C102  1  0.36300000  0.17420000  0.94180000  1
  C  C103  1  0.32590000  0.23350000  0.92490000  1
  C  C104  1  0.33060000  0.27920000  0.87360000  1
  C  C105  1  0.05820000  0.63700000  0.47900000  1
  C  C106  1  0.07510000  0.67410000  0.48430000  1
  C  C107  1  0.12640000  0.66940000  0.48340000  1
  C  C108  1  0.94180000  0.52100000  0.36300000  1
  C  C109  1  0.92490000  0.51570000  0.32590000  1
  C  C110  1  0.87360000  0.51660000  0.33060000  1
  C  C111  1  0.63700000  0.05820000  0.82580000  1
  C  C112  1  0.67410000  0.07510000  0.76650000  1
  C  C113  1  0.66940000  0.12640000  0.72080000  1
  C  C114  1  0.17420000  0.36300000  0.52100000  1
  C  C115  1  0.23350000  0.32590000  0.51570000  1
  C  C116  1  0.27920000  0.33060000  0.51660000  1
  C  C117  1  0.47900000  0.82580000  0.05820000  1
  C  C118  1  0.48430000  0.76650000  0.07510000  1
  C  C119  1  0.48340000  0.72080000  0.12640000  1
  C  C120  1  0.94180000  0.17420000  0.52100000  1
  C  C121  1  0.92490000  0.23350000  0.51570000  1
  C  C122  1  0.87360000  0.27920000  0.51660000  1
  C  C123  1  0.17420000  0.94180000  0.36300000  1
  C  C124  1  0.23350000  0.92490000  0.32590000  1
  C  C125  1  0.27920000  0.87360000  0.33060000  1
  C  C126  1  0.63700000  0.82580000  0.47900000  1
  C  C127  1  0.67410000  0.76650000  0.48430000  1
  C  C128  1  0.66940000  0.72080000  0.48340000  1
  C  C129  1  0.52100000  0.36300000  0.94180000  1
  C  C130  1  0.51570000  0.32590000  0.92490000  1
  C  C131  1  0.51660000  0.33060000  0.87360000  1
  C  C132  1  0.05820000  0.47900000  0.82580000  1
  C  C133  1  0.07510000  0.48430000  0.76650000  1
  C  C134  1  0.12640000  0.48340000  0.72080000  1
  C  C135  1  0.36300000  0.52100000  0.17420000  1
  C  C136  1  0.32590000  0.51570000  0.23350000  1
  C  C137  1  0.33060000  0.51660000  0.27920000  1
  C  C138  1  0.82580000  0.63700000  0.05820000  1
  C  C139  1  0.76650000  0.67410000  0.07510000  1
  C  C140  1  0.72080000  0.66940000  0.12640000  1
  C  C141  1  0.47900000  0.05820000  0.63700000  1
  C  C142  1  0.48430000  0.07510000  0.67410000  1
  C  C143  1  0.48340000  0.12640000  0.66940000  1
  H  H144  1  0.72283000  0.48279000  0.15971000  1
  H  H145  1  0.84029000  0.27717000  0.36533000  1
  H  H146  1  0.63467000  0.15971000  0.48279000  1
  H  H147  1  0.51721000  0.36533000  0.27717000  1
  H  H148  1  0.48279000  0.72283000  0.63467000  1
  H  H149  1  0.36533000  0.51721000  0.84029000  1
  H  H150  1  0.15971000  0.63467000  0.72283000  1
  H  H151  1  0.27717000  0.84029000  0.51721000  1
  H  H152  1  0.48279000  0.15971000  0.72283000  1
  H  H153  1  0.27717000  0.51721000  0.36533000  1
  H  H154  1  0.63467000  0.72283000  0.15971000  1
  H  H155  1  0.84029000  0.36533000  0.51721000  1
  H  H156  1  0.15971000  0.48279000  0.63467000  1
  H  H157  1  0.36533000  0.84029000  0.27717000  1
  H  H158  1  0.72283000  0.63467000  0.48279000  1
  H  H159  1  0.51721000  0.27717000  0.84029000  1
  H  H160  1  0.15971000  0.72283000  0.48279000  1
  H  H161  1  0.72283000  0.15971000  0.63467000  1
  H  H162  1  0.36533000  0.27717000  0.51721000  1
  H  H163  1  0.48279000  0.63467000  0.15971000  1
  H  H164  1  0.84029000  0.51721000  0.27717000  1
  H  H165  1  0.63467000  0.48279000  0.72283000  1
  H  H166  1  0.27717000  0.36533000  0.84029000  1
  H  H167  1  0.51721000  0.84029000  0.36533000  1
  H  H168  1  0.27717000  0.51721000  0.84029000  1
  H  H169  1  0.15971000  0.72283000  0.63467000  1
  H  H170  1  0.36533000  0.84029000  0.51721000  1
  H  H171  1  0.48279000  0.63467000  0.72283000  1
  H  H172  1  0.51721000  0.27717000  0.36533000  1
  H  H173  1  0.63467000  0.48279000  0.15971000  1
  H  H174  1  0.84029000  0.36533000  0.27717000  1
  H  H175  1  0.72283000  0.15971000  0.48279000  1
  H  H176  1  0.51721000  0.84029000  0.27717000  1
  H  H177  1  0.72283000  0.48279000  0.63467000  1
  H  H178  1  0.36533000  0.27717000  0.84029000  1
  H  H179  1  0.15971000  0.63467000  0.48279000  1
  H  H180  1  0.84029000  0.51721000  0.36533000  1
  H  H181  1  0.63467000  0.15971000  0.72283000  1
  H  H182  1  0.27717000  0.36533000  0.51721000  1
  H  H183  1  0.48279000  0.72283000  0.15971000  1
  H  H184  1  0.84029000  0.27717000  0.51721000  1
  H  H185  1  0.27717000  0.84029000  0.36533000  1
  H  H186  1  0.63467000  0.72283000  0.48279000  1
  H  H187  1  0.51721000  0.36533000  0.84029000  1
  H  H188  1  0.15971000  0.48279000  0.72283000  1
  H  H189  1  0.36533000  0.51721000  0.27717000  1
  H  H190  1  0.72283000  0.63467000  0.15971000  1
  H  H191  1  0.48279000  0.15971000  0.63467000  1
  O  O192  1  0.83612000  0.48648000  0.09656000  1
  O  O193  1  0.86370000  0.47350000  0.01010000  1
  O  O194  1  0.04460000  0.43180000  0.95540000  1
  O  O195  1  0.90780000  0.54820000  0.99580000  1
  O  O196  1  0.90344000  0.16388000  0.41916000  1
  O  O197  1  0.98990000  0.13630000  0.34730000  1
  O  O198  1  0.04460000  0.95540000  0.43180000  1
  O  O199  1  0.00420000  0.09220000  0.45180000  1
  O  O200  1  0.58084000  0.09656000  0.48648000  1
  O  O201  1  0.65270000  0.01010000  0.47350000  1
  O  O202  1  0.56820000  0.95540000  0.43180000  1
  O  O203  1  0.54820000  0.99580000  0.54820000  1
  O  O204  1  0.51352000  0.41916000  0.16388000  1
  O  O205  1  0.52650000  0.34730000  0.13630000  1
  O  O206  1  0.56820000  0.43180000  0.95540000  1
  O  O207  1  0.45180000  0.45180000  0.09220000  1
  O  O208  1  0.48648000  0.83612000  0.58084000  1
  O  O209  1  0.47350000  0.86370000  0.65270000  1
  O  O210  1  0.43180000  0.04460000  0.56820000  1
  O  O211  1  0.54820000  0.90780000  0.54820000  1
  O  O212  1  0.41916000  0.51352000  0.90344000  1
  O  O213  1  0.34730000  0.52650000  0.98990000  1
  O  O214  1  0.43180000  0.56820000  0.04460000  1
  O  O215  1  0.45180000  0.45180000  0.00420000  1
  O  O216  1  0.09656000  0.58084000  0.83612000  1
  O  O217  1  0.01010000  0.65270000  0.86370000  1
  O  O218  1  0.95540000  0.56820000  0.04460000  1
  O  O219  1  0.99580000  0.54820000  0.90780000  1
  O  O220  1  0.16388000  0.90344000  0.51352000  1
  O  O221  1  0.13630000  0.98990000  0.52650000  1
  O  O222  1  0.95540000  0.04460000  0.56820000  1
  O  O223  1  0.09220000  0.00420000  0.45180000  1
  O  O224  1  0.48648000  0.09656000  0.83612000  1
  O  O225  1  0.47350000  0.01010000  0.86370000  1
  O  O226  1  0.43180000  0.95540000  0.04460000  1
  O  O227  1  0.54820000  0.99580000  0.90780000  1
  O  O228  1  0.16388000  0.51352000  0.41916000  1
  O  O229  1  0.13630000  0.52650000  0.34730000  1
  O  O230  1  0.95540000  0.56820000  0.43180000  1
  O  O231  1  0.09220000  0.45180000  0.45180000  1
  O  O232  1  0.58084000  0.83612000  0.09656000  1
  O  O233  1  0.65270000  0.86370000  0.01010000  1
  O  O234  1  0.56820000  0.04460000  0.95540000  1
  O  O235  1  0.54820000  0.90780000  0.99580000  1
  O  O236  1  0.90344000  0.41916000  0.51352000  1
  O  O237  1  0.98990000  0.34730000  0.52650000  1
  O  O238  1  0.04460000  0.43180000  0.56820000  1
  O  O239  1  0.00420000  0.45180000  0.45180000  1
  O  O240  1  0.09656000  0.48648000  0.58084000  1
  O  O241  1  0.01010000  0.47350000  0.65270000  1
  O  O242  1  0.95540000  0.43180000  0.56820000  1
  O  O243  1  0.99580000  0.54820000  0.54820000  1
  O  O244  1  0.41916000  0.90344000  0.16388000  1
  O  O245  1  0.34730000  0.98990000  0.13630000  1
  O  O246  1  0.43180000  0.04460000  0.95540000  1
  O  O247  1  0.45180000  0.00420000  0.09220000  1
  O  O248  1  0.83612000  0.58084000  0.48648000  1
  O  O249  1  0.86370000  0.65270000  0.47350000  1
  O  O250  1  0.04460000  0.56820000  0.43180000  1
  O  O251  1  0.90780000  0.54820000  0.54820000  1
  O  O252  1  0.51352000  0.16388000  0.90344000  1
  O  O253  1  0.52650000  0.13630000  0.98990000  1
  O  O254  1  0.56820000  0.95540000  0.04460000  1
  O  O255  1  0.45180000  0.09220000  0.00420000  1
  O  O256  1  0.09656000  0.83612000  0.48648000  1
  O  O257  1  0.01010000  0.86370000  0.47350000  1
  O  O258  1  0.95540000  0.04460000  0.43180000  1
  O  O259  1  0.99580000  0.90780000  0.54820000  1
  O  O260  1  0.83612000  0.09656000  0.58084000  1
  O  O261  1  0.86370000  0.01010000  0.65270000  1
  O  O262  1  0.04460000  0.95540000  0.56820000  1
  O  O263  1  0.90780000  0.99580000  0.54820000  1
  O  O264  1  0.41916000  0.16388000  0.51352000  1
  O  O265  1  0.34730000  0.13630000  0.52650000  1
  O  O266  1  0.43180000  0.95540000  0.56820000  1
  O  O267  1  0.45180000  0.09220000  0.45180000  1
  O  O268  1  0.48648000  0.58084000  0.09656000  1
  O  O269  1  0.47350000  0.65270000  0.01010000  1
  O  O270  1  0.43180000  0.56820000  0.95540000  1
  O  O271  1  0.54820000  0.54820000  0.99580000  1
  O  O272  1  0.90344000  0.51352000  0.16388000  1
  O  O273  1  0.98990000  0.52650000  0.13630000  1
  O  O274  1  0.04460000  0.56820000  0.95540000  1
  O  O275  1  0.00420000  0.45180000  0.09220000  1
  O  O276  1  0.58084000  0.48648000  0.83612000  1
  O  O277  1  0.65270000  0.47350000  0.86370000  1
  O  O278  1  0.56820000  0.43180000  0.04460000  1
  O  O279  1  0.54820000  0.54820000  0.90780000  1
  O  O280  1  0.16388000  0.41916000  0.90344000  1
  O  O281  1  0.13630000  0.34730000  0.98990000  1
  O  O282  1  0.95540000  0.43180000  0.04460000  1
  O  O283  1  0.09220000  0.45180000  0.00420000  1
  O  O284  1  0.51352000  0.90344000  0.41916000  1
  O  O285  1  0.52650000  0.98990000  0.34730000  1
  O  O286  1  0.56820000  0.04460000  0.43180000  1
  O  O287  1  0.45180000  0.00420000  0.45180000  1
  O  O288  1  0.16388000  0.51352000  0.90344000  1
  O  O289  1  0.13630000  0.52650000  0.98990000  1
  O  O290  1  0.09656000  0.83612000  0.58084000  1
  O  O291  1  0.01010000  0.86370000  0.65270000  1
  O  O292  1  0.41916000  0.90344000  0.51352000  1
  O  O293  1  0.34730000  0.98990000  0.52650000  1
  O  O294  1  0.48648000  0.58084000  0.83612000  1
  O  O295  1  0.47350000  0.65270000  0.86370000  1
  O  O296  1  0.51352000  0.16388000  0.41916000  1
  O  O297  1  0.52650000  0.13630000  0.34730000  1
  O  O298  1  0.58084000  0.48648000  0.09656000  1
  O  O299  1  0.65270000  0.47350000  0.01010000  1
  O  O300  1  0.90344000  0.41916000  0.16388000  1
  O  O301  1  0.98990000  0.34730000  0.13630000  1
  O  O302  1  0.83612000  0.09656000  0.48648000  1
  O  O303  1  0.86370000  0.01010000  0.47350000  1
  O  O304  1  0.51352000  0.90344000  0.16388000  1
  O  O305  1  0.52650000  0.98990000  0.13630000  1
  O  O306  1  0.83612000  0.48648000  0.58084000  1
  O  O307  1  0.86370000  0.47350000  0.65270000  1
  O  O308  1  0.41916000  0.16388000  0.90344000  1
  O  O309  1  0.34730000  0.13630000  0.98990000  1
  O  O310  1  0.09656000  0.58084000  0.48648000  1
  O  O311  1  0.01010000  0.65270000  0.47350000  1
  O  O312  1  0.90344000  0.51352000  0.41916000  1
  O  O313  1  0.98990000  0.52650000  0.34730000  1
  O  O314  1  0.58084000  0.09656000  0.83612000  1
  O  O315  1  0.65270000  0.01010000  0.86370000  1
  O  O316  1  0.16388000  0.41916000  0.51352000  1
  O  O317  1  0.13630000  0.34730000  0.52650000  1
  O  O318  1  0.48648000  0.83612000  0.09656000  1
  O  O319  1  0.47350000  0.86370000  0.01010000  1
  O  O320  1  0.90344000  0.16388000  0.51352000  1
  O  O321  1  0.98990000  0.13630000  0.52650000  1
  O  O322  1  0.16388000  0.90344000  0.41916000  1
  O  O323  1  0.13630000  0.98990000  0.34730000  1
  O  O324  1  0.58084000  0.83612000  0.48648000  1
  O  O325  1  0.65270000  0.86370000  0.47350000  1
  O  O326  1  0.51352000  0.41916000  0.90344000  1
  O  O327  1  0.52650000  0.34730000  0.98990000  1
  O  O328  1  0.09656000  0.48648000  0.83612000  1
  O  O329  1  0.01010000  0.47350000  0.86370000  1
  O  O330  1  0.41916000  0.51352000  0.16388000  1
  O  O331  1  0.34730000  0.52650000  0.13630000  1
  O  O332  1  0.83612000  0.58084000  0.09656000  1
  O  O333  1  0.86370000  0.65270000  0.01010000  1
  O  O334  1  0.48648000  0.09656000  0.58084000  1
  O  O335  1  0.47350000  0.01010000  0.65270000  1
  S  S336  1  0.75014000  0.47070000  0.02902000  1
  S  S337  1  0.97098000  0.24986000  0.24986000  1
  S  S338  1  0.75014000  0.02902000  0.47070000  1
  S  S339  1  0.52930000  0.24986000  0.24986000  1
  S  S340  1  0.47070000  0.75014000  0.75014000  1
  S  S341  1  0.24986000  0.52930000  0.97098000  1
  S  S342  1  0.02902000  0.75014000  0.75014000  1
  S  S343  1  0.24986000  0.97098000  0.52930000  1
  S  S344  1  0.47070000  0.02902000  0.75014000  1
  S  S345  1  0.24986000  0.52930000  0.24986000  1
  S  S346  1  0.75014000  0.75014000  0.02902000  1
  S  S347  1  0.97098000  0.24986000  0.52930000  1
  S  S348  1  0.02902000  0.47070000  0.75014000  1
  S  S349  1  0.24986000  0.97098000  0.24986000  1
  S  S350  1  0.75014000  0.75014000  0.47070000  1
  S  S351  1  0.52930000  0.24986000  0.97098000  1
  S  S352  1  0.02902000  0.75014000  0.47070000  1
  S  S353  1  0.75014000  0.02902000  0.75014000  1
  S  S354  1  0.24986000  0.24986000  0.52930000  1
  S  S355  1  0.47070000  0.75014000  0.02902000  1
  S  S356  1  0.97098000  0.52930000  0.24986000  1
  S  S357  1  0.75014000  0.47070000  0.75014000  1
  S  S358  1  0.24986000  0.24986000  0.97098000  1
  S  S359  1  0.52930000  0.97098000  0.24986000  1
  Zr  Zr360  1  0.91084000  0.50000000  0.08916000  1
  Zr  Zr361  1  0.95450000  0.48102000  0.95450000  1
  Zr  Zr362  1  0.91084000  0.08916000  0.50000000  1
  Zr  Zr363  1  0.04550000  0.04550000  0.39002000  1
  Zr  Zr364  1  0.50000000  0.08916000  0.50000000  1
  Zr  Zr365  1  0.60998000  0.95450000  0.48102000  1
  Zr  Zr366  1  0.50000000  0.50000000  0.08916000  1
  Zr  Zr367  1  0.51898000  0.39002000  0.04550000  1
  Zr  Zr368  1  0.50000000  0.91084000  0.50000000  1
  Zr  Zr369  1  0.48102000  0.95450000  0.60998000  1
  Zr  Zr370  1  0.50000000  0.50000000  0.91084000  1
  Zr  Zr371  1  0.39002000  0.51898000  0.04550000  1
  Zr  Zr372  1  0.08916000  0.50000000  0.91084000  1
  Zr  Zr373  1  0.95450000  0.60998000  0.95450000  1
  Zr  Zr374  1  0.08916000  0.91084000  0.50000000  1
  Zr  Zr375  1  0.04550000  0.04550000  0.51898000  1
  Zr  Zr376  1  0.50000000  0.08916000  0.91084000  1
  Zr  Zr377  1  0.48102000  0.95450000  0.95450000  1
  Zr  Zr378  1  0.08916000  0.50000000  0.50000000  1
  Zr  Zr379  1  0.04550000  0.51898000  0.39002000  1
  Zr  Zr380  1  0.50000000  0.91084000  0.08916000  1
  Zr  Zr381  1  0.60998000  0.95450000  0.95450000  1
  Zr  Zr382  1  0.91084000  0.50000000  0.50000000  1
  Zr  Zr383  1  0.04550000  0.39002000  0.51898000  1
  Zr  Zr384  1  0.95450000  0.48102000  0.60998000  1
  Zr  Zr385  1  0.39002000  0.04550000  0.04550000  1
  Zr  Zr386  1  0.95450000  0.60998000  0.48102000  1
  Zr  Zr387  1  0.51898000  0.04550000  0.04550000  1
  Zr  Zr388  1  0.95450000  0.95450000  0.48102000  1
  Zr  Zr389  1  0.95450000  0.95450000  0.60998000  1
  Zr  Zr390  1  0.39002000  0.04550000  0.51898000  1
  Zr  Zr391  1  0.48102000  0.60998000  0.95450000  1
  Zr  Zr392  1  0.04550000  0.51898000  0.04550000  1
  Zr  Zr393  1  0.60998000  0.48102000  0.95450000  1
  Zr  Zr394  1  0.04550000  0.39002000  0.04550000  1
  Zr  Zr395  1  0.51898000  0.04550000  0.39002000  1
