# generated using pymatgen
data_ZrCd(CO2)8
_symmetry_space_group_name_H-M   'P 1'
_cell_length_a   9.06100000
_cell_length_b   9.06100000
_cell_length_c   23.39400000
_cell_angle_alpha   90.00000000
_cell_angle_beta   90.00000000
_cell_angle_gamma   120.00000000
_symmetry_Int_Tables_number   1
_chemical_formula_structural   ZrCd(CO2)8
_chemical_formula_sum   'Zr3 Cd3 C24 O48'
_cell_volume   1663.36430723
_cell_formula_units_Z   3
loop_
 _symmetry_equiv_pos_site_id
 _symmetry_equiv_pos_as_xyz
  1  'x, y, z'
loop_
 _atom_site_type_symbol
 _atom_site_label
 _atom_site_symmetry_multiplicity
 _atom_site_fract_x
 _atom_site_fract_y
 _atom_site_fract_z
 _atom_site_occupancy
  Zr  Zr0  1  0.50000000  0.50000000  0.50000000  1
  Zr  Zr1  1  0.50000000  0.00000000  0.83330000  1
  Zr  Zr2  1  0.00000000  0.50000000  0.16663333  1
  Cd  Cd3  1  0.00000000  0.50000000  0.66666667  1
  Cd  Cd4  1  0.50000000  0.50000000  0.00003333  1
  Cd  Cd5  1  0.50000000  0.00000000  0.33333333  1
  C  C6  1  0.20840000  0.41930000  0.58143000  1
  C  C7  1  0.31460000  0.61570000  0.58237000  1
  C  C8  1  0.79160000  0.58070000  0.58143000  1
  C  C9  1  0.79160000  0.21090000  0.75190000  1
  C  C10  1  0.20840000  0.78910000  0.75190000  1
  C  C11  1  0.68540000  0.38430000  0.58237000  1
  C  C12  1  0.68540000  0.30110000  0.75096000  1
  C  C13  1  0.31460000  0.69890000  0.75096000  1
  C  C14  1  0.41930000  0.21090000  0.91476333  1
  C  C15  1  0.61570000  0.30110000  0.91570333  1
  C  C16  1  0.58070000  0.78910000  0.91476333  1
  C  C17  1  0.21090000  0.41930000  0.08523333  1
  C  C18  1  0.78910000  0.58070000  0.08523333  1
  C  C19  1  0.38430000  0.69890000  0.91570333  1
  C  C20  1  0.30110000  0.61570000  0.08429333  1
  C  C21  1  0.69890000  0.38430000  0.08429333  1
  C  C22  1  0.21090000  0.79160000  0.24809667  1
  C  C23  1  0.30110000  0.68540000  0.24903667  1
  C  C24  1  0.78910000  0.20840000  0.24809667  1
  C  C25  1  0.41930000  0.20840000  0.41856667  1
  C  C26  1  0.58070000  0.79160000  0.41856667  1
  C  C27  1  0.69890000  0.31460000  0.24903667  1
  C  C28  1  0.61570000  0.31460000  0.41762667  1
  C  C29  1  0.38430000  0.68540000  0.41762667  1
  O  O30  1  0.08010000  0.34300000  0.61101000  1
  O  O31  1  0.26560000  0.34880000  0.54784000  1
  O  O32  1  0.45390000  0.67480000  0.55424000  1
  O  O33  1  0.26120000  0.69660000  0.60866000  1
  O  O34  1  0.73440000  0.65120000  0.54784000  1
  O  O35  1  0.54610000  0.32520000  0.55424000  1
  O  O36  1  0.34880000  0.26560000  0.45216000  1
  O  O37  1  0.65120000  0.73440000  0.45216000  1
  O  O38  1  0.91990000  0.65700000  0.61101000  1
  O  O39  1  0.91990000  0.26290000  0.72232000  1
  O  O40  1  0.08010000  0.73710000  0.72232000  1
  O  O41  1  0.73880000  0.30340000  0.60866000  1
  O  O42  1  0.73880000  0.43540000  0.72467000  1
  O  O43  1  0.26120000  0.56460000  0.72467000  1
  O  O44  1  0.67480000  0.45390000  0.44576000  1
  O  O45  1  0.32520000  0.54610000  0.44576000  1
  O  O46  1  0.73440000  0.08320000  0.78549000  1
  O  O47  1  0.26560000  0.91680000  0.78549000  1
  O  O48  1  0.54610000  0.22090000  0.77909000  1
  O  O49  1  0.45390000  0.77910000  0.77909000  1
  O  O50  1  0.34300000  0.26290000  0.94434333  1
  O  O51  1  0.34880000  0.08320000  0.88117333  1
  O  O52  1  0.67480000  0.22090000  0.88757333  1
  O  O53  1  0.69660000  0.43540000  0.94199333  1
  O  O54  1  0.65120000  0.91680000  0.88117333  1
  O  O55  1  0.32520000  0.77910000  0.88757333  1
  O  O56  1  0.65700000  0.73710000  0.94434333  1
  O  O57  1  0.26290000  0.34300000  0.05565333  1
  O  O58  1  0.73710000  0.65700000  0.05565333  1
  O  O59  1  0.30340000  0.56460000  0.94199333  1
  O  O60  1  0.43540000  0.69660000  0.05800333  1
  O  O61  1  0.56460000  0.30340000  0.05800333  1
  O  O62  1  0.08320000  0.34880000  0.11882333  1
  O  O63  1  0.91680000  0.65120000  0.11882333  1
  O  O64  1  0.22090000  0.67480000  0.11242333  1
  O  O65  1  0.77910000  0.32520000  0.11242333  1
  O  O66  1  0.26290000  0.91990000  0.27767667  1
  O  O67  1  0.08320000  0.73440000  0.21450667  1
  O  O68  1  0.22090000  0.54610000  0.22090667  1
  O  O69  1  0.43540000  0.73880000  0.27532667  1
  O  O70  1  0.91680000  0.26560000  0.21450667  1
  O  O71  1  0.77910000  0.45390000  0.22090667  1
  O  O72  1  0.73710000  0.08010000  0.27767667  1
  O  O73  1  0.34300000  0.08010000  0.38898667  1
  O  O74  1  0.65700000  0.91990000  0.38898667  1
  O  O75  1  0.56460000  0.26120000  0.27532667  1
  O  O76  1  0.69660000  0.26120000  0.39133667  1
  O  O77  1  0.30340000  0.73880000  0.39133667  1
