# generated using pymatgen
data_ZrCd(CO2)8
_symmetry_space_group_name_H-M   'P 1'
_cell_length_a   9.10500000
_cell_length_b   9.10500000
_cell_length_c   23.65600000
_cell_angle_alpha   90.00000000
_cell_angle_beta   90.00000000
_cell_angle_gamma   120.00000000
_symmetry_Int_Tables_number   1
_chemical_formula_structural   ZrCd(CO2)8
_chemical_formula_sum   'Zr3 Cd3 C24 O48'
_cell_volume   1698.36817618
_cell_formula_units_Z   3
loop_
 _symmetry_equiv_pos_site_id
 _symmetry_equiv_pos_as_xyz
  1  'x, y, z'
loop_
 _atom_site_type_symbol
 _atom_site_label
 _atom_site_symmetry_multiplicity
 _atom_site_fract_x
 _atom_site_fract_y
 _atom_site_fract_z
 _atom_site_occupancy
  Zr  Zr0  1  0.14872000  0.85129000  0.83330000  1
  Zr  Zr1  1  0.70257000  0.85128000  0.50000000  1
  Zr  Zr2  1  0.14871000  0.29743000  0.16666667  1
  Cd  Cd3  1  0.18669000  0.37338000  0.66660000  1
  Cd  Cd4  1  0.18669000  0.81331000  0.33333333  1
  Cd  Cd5  1  0.62662000  0.81331000  0.99993333  1
  C  C6  1  0.28270000  0.68140000  0.75191000  1
  C  C7  1  0.08910000  0.57520000  0.74852000  1
  C  C8  1  0.91180000  0.15000000  0.57813000  1
  C  C9  1  0.00040000  0.04570000  0.58278000  1
  C  C10  1  0.39870000  0.68140000  0.58142000  1
  C  C11  1  0.23820000  0.15000000  0.75520000  1
  C  C12  1  0.48610000  0.57520000  0.58481000  1
  C  C13  1  0.04530000  0.04570000  0.75055000  1
  C  C14  1  0.39870000  0.71730000  0.41857667  1
  C  C15  1  0.48610000  0.91090000  0.41518667  1
  C  C16  1  0.23820000  0.08820000  0.24479667  1
  C  C17  1  0.04530000  0.99960000  0.24944667  1
  C  C18  1  0.28270000  0.60130000  0.24808667  1
  C  C19  1  0.91180000  0.76180000  0.42186667  1
  C  C20  1  0.08910000  0.51390000  0.25147667  1
  C  C21  1  0.00040000  0.95470000  0.41721667  1
  C  C22  1  0.31860000  0.60130000  0.08524333  1
  C  C23  1  0.42480000  0.51390000  0.08185333  1
  C  C24  1  0.85000000  0.76180000  0.91146333  1
  C  C25  1  0.95430000  0.95470000  0.91611333  1
  C  C26  1  0.31860000  0.71730000  0.91475333  1
  C  C27  1  0.85000000  0.08820000  0.08853333  1
  C  C28  1  0.42480000  0.91090000  0.91814333  1
  C  C29  1  0.95430000  0.99960000  0.08388333  1
  O  O30  1  0.33630000  0.81160000  0.78271000  1
  O  O31  1  0.36690000  0.63230000  0.72547000  1
  O  O32  1  0.31930000  0.28030000  0.72649000  1
  O  O33  1  0.01080000  0.62570000  0.78096000  1
  O  O34  1  0.02120000  0.45300000  0.71619000  1
  O  O35  1  0.92640000  0.90590000  0.55421000  1
  O  O36  1  0.97060000  0.09860000  0.72093000  1
  O  O37  1  0.78770000  0.09220000  0.54442000  1
  O  O38  1  0.30450000  0.09220000  0.78891000  1
  O  O39  1  0.18840000  0.66370000  0.88396000  1
  O  O40  1  0.26540000  0.63230000  0.60786000  1
  O  O41  1  0.96100000  0.28030000  0.60684000  1
  O  O42  1  0.43180000  0.45300000  0.61714000  1
  O  O43  1  0.12800000  0.09860000  0.61240000  1
  O  O44  1  0.37430000  0.98920000  0.88571000  1
  O  O45  1  0.97950000  0.90590000  0.77912000  1
  O  O46  1  0.09410000  0.02050000  0.88754000  1
  O  O47  1  0.90780000  0.69550000  0.87775000  1
  O  O48  1  0.47530000  0.81160000  0.55062000  1
  O  O49  1  0.61490000  0.62570000  0.55237000  1
  O  O50  1  0.47530000  0.66370000  0.44937667  1
  O  O51  1  0.26540000  0.63310000  0.39213667  1
  O  O52  1  0.96100000  0.68070000  0.39315667  1
  O  O53  1  0.61490000  0.98920000  0.44762667  1
  O  O54  1  0.43180000  0.97880000  0.38285667  1
  O  O55  1  0.97950000  0.07360000  0.22087667  1
  O  O56  1  0.12800000  0.02940000  0.38759667  1
  O  O57  1  0.30450000  0.21230000  0.21108667  1
  O  O58  1  0.78770000  0.69550000  0.45557667  1
  O  O59  1  0.36690000  0.73460000  0.27452667  1
  O  O60  1  0.31930000  0.03900000  0.27350667  1
  O  O61  1  0.02120000  0.56820000  0.28380667  1
  O  O62  1  0.97060000  0.87200000  0.27906667  1
  O  O63  1  0.92640000  0.02050000  0.44578667  1
  O  O64  1  0.33630000  0.52470000  0.21728667  1
  O  O65  1  0.01080000  0.38510000  0.21903667  1
  O  O66  1  0.18840000  0.52470000  0.11604333  1
  O  O67  1  0.36770000  0.73460000  0.05880333  1
  O  O68  1  0.71970000  0.03900000  0.05982333  1
  O  O69  1  0.37430000  0.38510000  0.11429333  1
  O  O70  1  0.54700000  0.56820000  0.04952333  1
  O  O71  1  0.90140000  0.87200000  0.05426333  1
  O  O72  1  0.90780000  0.21230000  0.12224333  1
  O  O73  1  0.36770000  0.63310000  0.94119333  1
  O  O74  1  0.71970000  0.68070000  0.94017333  1
  O  O75  1  0.54700000  0.97880000  0.95047333  1
  O  O76  1  0.90140000  0.02940000  0.94573333  1
  O  O77  1  0.09410000  0.07360000  0.11245333  1
