# generated using pymatgen
data_Zr3H12(C9O8)2
_symmetry_space_group_name_H-M   'P 1'
_cell_length_a   20.87820000
_cell_length_b   20.87820000
_cell_length_c   20.87820000
_cell_angle_alpha   90.00000000
_cell_angle_beta   90.00000000
_cell_angle_gamma   90.00000000
_symmetry_Int_Tables_number   1
_chemical_formula_structural   Zr3H12(C9O8)2
_chemical_formula_sum   'Zr24 H96 C144 O128'
_cell_volume   9100.79141319
_cell_formula_units_Z   8
loop_
 _symmetry_equiv_pos_site_id
 _symmetry_equiv_pos_as_xyz
  1  'x, y, z'
loop_
 _atom_site_type_symbol
 _atom_site_label
 _atom_site_symmetry_multiplicity
 _atom_site_fract_x
 _atom_site_fract_y
 _atom_site_fract_z
 _atom_site_occupancy
  Zr  Zr0  1  0.01968000  0.11586000  0.51745000  1
  Zr  Zr1  1  0.48032000  0.38414000  0.51745000  1
  Zr  Zr2  1  0.01968000  0.38414000  0.98255000  1
  Zr  Zr3  1  0.48032000  0.11586000  0.98255000  1
  Zr  Zr4  1  0.51745000  0.01968000  0.11586000  1
  Zr  Zr5  1  0.98255000  0.48032000  0.11586000  1
  Zr  Zr6  1  0.51745000  0.48032000  0.38414000  1
  Zr  Zr7  1  0.98255000  0.01968000  0.38414000  1
  Zr  Zr8  1  0.11586000  0.51745000  0.01968000  1
  Zr  Zr9  1  0.11586000  0.98255000  0.48032000  1
  Zr  Zr10  1  0.38414000  0.51745000  0.48032000  1
  Zr  Zr11  1  0.38414000  0.98255000  0.01968000  1
  Zr  Zr12  1  0.98032000  0.88414000  0.48255000  1
  Zr  Zr13  1  0.51968000  0.61586000  0.48255000  1
  Zr  Zr14  1  0.98032000  0.61586000  0.01745000  1
  Zr  Zr15  1  0.51968000  0.88414000  0.01745000  1
  Zr  Zr16  1  0.48255000  0.98032000  0.88414000  1
  Zr  Zr17  1  0.01745000  0.51968000  0.88414000  1
  Zr  Zr18  1  0.48255000  0.51968000  0.61586000  1
  Zr  Zr19  1  0.01745000  0.98032000  0.61586000  1
  Zr  Zr20  1  0.88414000  0.48255000  0.98032000  1
  Zr  Zr21  1  0.88414000  0.01745000  0.51968000  1
  Zr  Zr22  1  0.61586000  0.48255000  0.51968000  1
  Zr  Zr23  1  0.61586000  0.01745000  0.98032000  1
  H  H24  1  0.00490000  0.26990000  0.35190000  1
  H  H25  1  0.00130000  0.18210000  0.25440000  1
  H  H26  1  0.85270000  0.26820000  0.54930000  1
  H  H27  1  0.75240000  0.18220000  0.55410000  1
  H  H28  1  0.49510000  0.23010000  0.35190000  1
  H  H29  1  0.49870000  0.31790000  0.25440000  1
  H  H30  1  0.64730000  0.23180000  0.54930000  1
  H  H31  1  0.74760000  0.31780000  0.55410000  1
  H  H32  1  0.00490000  0.23010000  0.14810000  1
  H  H33  1  0.00130000  0.31790000  0.24560000  1
  H  H34  1  0.85270000  0.23180000  0.95070000  1
  H  H35  1  0.75240000  0.31780000  0.94590000  1
  H  H36  1  0.49510000  0.26990000  0.14810000  1
  H  H37  1  0.49870000  0.18210000  0.24560000  1
  H  H38  1  0.64730000  0.26820000  0.95070000  1
  H  H39  1  0.74760000  0.18220000  0.94590000  1
  H  H40  1  0.35190000  0.00490000  0.26990000  1
  H  H41  1  0.25440000  0.00130000  0.18210000  1
  H  H42  1  0.54930000  0.85270000  0.26820000  1
  H  H43  1  0.55410000  0.75240000  0.18220000  1
  H  H44  1  0.14810000  0.49510000  0.26990000  1
  H  H45  1  0.24560000  0.49870000  0.18210000  1
  H  H46  1  0.95070000  0.64730000  0.26820000  1
  H  H47  1  0.94590000  0.74760000  0.18220000  1
  H  H48  1  0.35190000  0.49510000  0.23010000  1
  H  H49  1  0.25440000  0.49870000  0.31790000  1
  H  H50  1  0.54930000  0.64730000  0.23180000  1
  H  H51  1  0.55410000  0.74760000  0.31780000  1
  H  H52  1  0.14810000  0.00490000  0.23010000  1
  H  H53  1  0.24560000  0.00130000  0.31790000  1
  H  H54  1  0.95070000  0.85270000  0.23180000  1
  H  H55  1  0.94590000  0.75240000  0.31780000  1
  H  H56  1  0.26990000  0.35190000  0.00490000  1
  H  H57  1  0.18210000  0.25440000  0.00130000  1
  H  H58  1  0.26820000  0.54930000  0.85270000  1
  H  H59  1  0.18220000  0.55410000  0.75240000  1
  H  H60  1  0.26990000  0.14810000  0.49510000  1
  H  H61  1  0.18210000  0.24560000  0.49870000  1
  H  H62  1  0.26820000  0.95070000  0.64730000  1
  H  H63  1  0.18220000  0.94590000  0.74760000  1
  H  H64  1  0.23010000  0.35190000  0.49510000  1
  H  H65  1  0.31790000  0.25440000  0.49870000  1
  H  H66  1  0.23180000  0.54930000  0.64730000  1
  H  H67  1  0.31780000  0.55410000  0.74760000  1
  H  H68  1  0.23010000  0.14810000  0.00490000  1
  H  H69  1  0.31790000  0.24560000  0.00130000  1
  H  H70  1  0.23180000  0.95070000  0.85270000  1
  H  H71  1  0.31780000  0.94590000  0.75240000  1
  H  H72  1  0.99510000  0.73010000  0.64810000  1
  H  H73  1  0.99870000  0.81790000  0.74560000  1
  H  H74  1  0.14730000  0.73180000  0.45070000  1
  H  H75  1  0.24760000  0.81780000  0.44590000  1
  H  H76  1  0.50490000  0.76990000  0.64810000  1
  H  H77  1  0.50130000  0.68210000  0.74560000  1
  H  H78  1  0.35270000  0.76820000  0.45070000  1
  H  H79  1  0.25240000  0.68220000  0.44590000  1
  H  H80  1  0.99510000  0.76990000  0.85190000  1
  H  H81  1  0.99870000  0.68210000  0.75440000  1
  H  H82  1  0.14730000  0.76820000  0.04930000  1
  H  H83  1  0.24760000  0.68220000  0.05410000  1
  H  H84  1  0.50490000  0.73010000  0.85190000  1
  H  H85  1  0.50130000  0.81790000  0.75440000  1
  H  H86  1  0.35270000  0.73180000  0.04930000  1
  H  H87  1  0.25240000  0.81780000  0.05410000  1
  H  H88  1  0.64810000  0.99510000  0.73010000  1
  H  H89  1  0.74560000  0.99870000  0.81790000  1
  H  H90  1  0.45070000  0.14730000  0.73180000  1
  H  H91  1  0.44590000  0.24760000  0.81780000  1
  H  H92  1  0.85190000  0.50490000  0.73010000  1
  H  H93  1  0.75440000  0.50130000  0.81790000  1
  H  H94  1  0.04930000  0.35270000  0.73180000  1
  H  H95  1  0.05410000  0.25240000  0.81780000  1
  H  H96  1  0.64810000  0.50490000  0.76990000  1
  H  H97  1  0.74560000  0.50130000  0.68210000  1
  H  H98  1  0.45070000  0.35270000  0.76820000  1
  H  H99  1  0.44590000  0.25240000  0.68220000  1
  H  H100  1  0.85190000  0.99510000  0.76990000  1
  H  H101  1  0.75440000  0.99870000  0.68210000  1
  H  H102  1  0.04930000  0.14730000  0.76820000  1
  H  H103  1  0.05410000  0.24760000  0.68220000  1
  H  H104  1  0.73010000  0.64810000  0.99510000  1
  H  H105  1  0.81790000  0.74560000  0.99870000  1
  H  H106  1  0.73180000  0.45070000  0.14730000  1
  H  H107  1  0.81780000  0.44590000  0.24760000  1
  H  H108  1  0.73010000  0.85190000  0.50490000  1
  H  H109  1  0.81790000  0.75440000  0.50130000  1
  H  H110  1  0.73180000  0.04930000  0.35270000  1
  H  H111  1  0.81780000  0.05410000  0.25240000  1
  H  H112  1  0.76990000  0.64810000  0.50490000  1
  H  H113  1  0.68210000  0.74560000  0.50130000  1
  H  H114  1  0.76820000  0.45070000  0.35270000  1
  H  H115  1  0.68220000  0.44590000  0.25240000  1
  H  H116  1  0.76990000  0.85190000  0.99510000  1
  H  H117  1  0.68210000  0.75440000  0.99870000  1
  H  H118  1  0.76820000  0.04930000  0.14730000  1
  H  H119  1  0.68220000  0.05410000  0.24760000  1
  C  C120  1  0.00420000  0.17260000  0.37660000  1
  C  C121  1  0.00390000  0.22920000  0.33400000  1
  C  C122  1  0.00240000  0.22310000  0.27160000  1
  C  C123  1  0.87690000  0.17030000  0.54210000  1
  C  C124  1  0.83420000  0.22770000  0.54800000  1
  C  C125  1  0.77060000  0.22280000  0.55150000  1
  C  C126  1  0.49580000  0.32740000  0.37660000  1
  C  C127  1  0.49610000  0.27080000  0.33400000  1
  C  C128  1  0.49760000  0.27690000  0.27160000  1
  C  C129  1  0.62310000  0.32970000  0.54210000  1
  C  C130  1  0.66580000  0.27230000  0.54800000  1
  C  C131  1  0.72940000  0.27720000  0.55150000  1
  C  C132  1  0.00420000  0.32740000  0.12340000  1
  C  C133  1  0.00390000  0.27080000  0.16600000  1
  C  C134  1  0.00240000  0.27690000  0.22840000  1
  C  C135  1  0.87690000  0.32970000  0.95790000  1
  C  C136  1  0.83420000  0.27230000  0.95200000  1
  C  C137  1  0.77060000  0.27720000  0.94850000  1
  C  C138  1  0.49580000  0.17260000  0.12340000  1
  C  C139  1  0.49610000  0.22920000  0.16600000  1
  C  C140  1  0.49760000  0.22310000  0.22840000  1
  C  C141  1  0.62310000  0.17030000  0.95790000  1
  C  C142  1  0.66580000  0.22770000  0.95200000  1
  C  C143  1  0.72940000  0.22280000  0.94850000  1
  C  C144  1  0.37660000  0.00420000  0.17260000  1
  C  C145  1  0.33400000  0.00390000  0.22920000  1
  C  C146  1  0.27160000  0.00240000  0.22310000  1
  C  C147  1  0.54210000  0.87690000  0.17030000  1
  C  C148  1  0.54800000  0.83420000  0.22770000  1
  C  C149  1  0.55150000  0.77060000  0.22280000  1
  C  C150  1  0.12340000  0.49580000  0.17260000  1
  C  C151  1  0.16600000  0.49610000  0.22920000  1
  C  C152  1  0.22840000  0.49760000  0.22310000  1
  C  C153  1  0.95790000  0.62310000  0.17030000  1
  C  C154  1  0.95200000  0.66580000  0.22770000  1
  C  C155  1  0.94850000  0.72940000  0.22280000  1
  C  C156  1  0.37660000  0.49580000  0.32740000  1
  C  C157  1  0.33400000  0.49610000  0.27080000  1
  C  C158  1  0.27160000  0.49760000  0.27690000  1
  C  C159  1  0.54210000  0.62310000  0.32970000  1
  C  C160  1  0.54800000  0.66580000  0.27230000  1
  C  C161  1  0.55150000  0.72940000  0.27720000  1
  C  C162  1  0.12340000  0.00420000  0.32740000  1
  C  C163  1  0.16600000  0.00390000  0.27080000  1
  C  C164  1  0.22840000  0.00240000  0.27690000  1
  C  C165  1  0.95790000  0.87690000  0.32970000  1
  C  C166  1  0.95200000  0.83420000  0.27230000  1
  C  C167  1  0.94850000  0.77060000  0.27720000  1
  C  C168  1  0.17260000  0.37660000  0.00420000  1
  C  C169  1  0.22920000  0.33400000  0.00390000  1
  C  C170  1  0.22310000  0.27160000  0.00240000  1
  C  C171  1  0.17030000  0.54210000  0.87690000  1
  C  C172  1  0.22770000  0.54800000  0.83420000  1
  C  C173  1  0.22280000  0.55150000  0.77060000  1
  C  C174  1  0.17260000  0.12340000  0.49580000  1
  C  C175  1  0.22920000  0.16600000  0.49610000  1
  C  C176  1  0.22310000  0.22840000  0.49760000  1
  C  C177  1  0.17030000  0.95790000  0.62310000  1
  C  C178  1  0.22770000  0.95200000  0.66580000  1
  C  C179  1  0.22280000  0.94850000  0.72940000  1
  C  C180  1  0.32740000  0.37660000  0.49580000  1
  C  C181  1  0.27080000  0.33400000  0.49610000  1
  C  C182  1  0.27690000  0.27160000  0.49760000  1
  C  C183  1  0.32970000  0.54210000  0.62310000  1
  C  C184  1  0.27230000  0.54800000  0.66580000  1
  C  C185  1  0.27720000  0.55150000  0.72940000  1
  C  C186  1  0.32740000  0.12340000  0.00420000  1
  C  C187  1  0.27080000  0.16600000  0.00390000  1
  C  C188  1  0.27690000  0.22840000  0.00240000  1
  C  C189  1  0.32970000  0.95790000  0.87690000  1
  C  C190  1  0.27230000  0.95200000  0.83420000  1
  C  C191  1  0.27720000  0.94850000  0.77060000  1
  C  C192  1  0.99580000  0.82740000  0.62340000  1
  C  C193  1  0.99610000  0.77080000  0.66600000  1
  C  C194  1  0.99760000  0.77690000  0.72840000  1
  C  C195  1  0.12310000  0.82970000  0.45790000  1
  C  C196  1  0.16580000  0.77230000  0.45200000  1
  C  C197  1  0.22940000  0.77720000  0.44850000  1
  C  C198  1  0.50420000  0.67260000  0.62340000  1
  C  C199  1  0.50390000  0.72920000  0.66600000  1
  C  C200  1  0.50240000  0.72310000  0.72840000  1
  C  C201  1  0.37690000  0.67030000  0.45790000  1
  C  C202  1  0.33420000  0.72770000  0.45200000  1
  C  C203  1  0.27060000  0.72280000  0.44850000  1
  C  C204  1  0.99580000  0.67260000  0.87660000  1
  C  C205  1  0.99610000  0.72920000  0.83400000  1
  C  C206  1  0.99760000  0.72310000  0.77160000  1
  C  C207  1  0.12310000  0.67030000  0.04210000  1
  C  C208  1  0.16580000  0.72770000  0.04800000  1
  C  C209  1  0.22940000  0.72280000  0.05150000  1
  C  C210  1  0.50420000  0.82740000  0.87660000  1
  C  C211  1  0.50390000  0.77080000  0.83400000  1
  C  C212  1  0.50240000  0.77690000  0.77160000  1
  C  C213  1  0.37690000  0.82970000  0.04210000  1
  C  C214  1  0.33420000  0.77230000  0.04800000  1
  C  C215  1  0.27060000  0.77720000  0.05150000  1
  C  C216  1  0.62340000  0.99580000  0.82740000  1
  C  C217  1  0.66600000  0.99610000  0.77080000  1
  C  C218  1  0.72840000  0.99760000  0.77690000  1
  C  C219  1  0.45790000  0.12310000  0.82970000  1
  C  C220  1  0.45200000  0.16580000  0.77230000  1
  C  C221  1  0.44850000  0.22940000  0.77720000  1
  C  C222  1  0.87660000  0.50420000  0.82740000  1
  C  C223  1  0.83400000  0.50390000  0.77080000  1
  C  C224  1  0.77160000  0.50240000  0.77690000  1
  C  C225  1  0.04210000  0.37690000  0.82970000  1
  C  C226  1  0.04800000  0.33420000  0.77230000  1
  C  C227  1  0.05150000  0.27060000  0.77720000  1
  C  C228  1  0.62340000  0.50420000  0.67260000  1
  C  C229  1  0.66600000  0.50390000  0.72920000  1
  C  C230  1  0.72840000  0.50240000  0.72310000  1
  C  C231  1  0.45790000  0.37690000  0.67030000  1
  C  C232  1  0.45200000  0.33420000  0.72770000  1
  C  C233  1  0.44850000  0.27060000  0.72280000  1
  C  C234  1  0.87660000  0.99580000  0.67260000  1
  C  C235  1  0.83400000  0.99610000  0.72920000  1
  C  C236  1  0.77160000  0.99760000  0.72310000  1
  C  C237  1  0.04210000  0.12310000  0.67030000  1
  C  C238  1  0.04800000  0.16580000  0.72770000  1
  C  C239  1  0.05150000  0.22940000  0.72280000  1
  C  C240  1  0.82740000  0.62340000  0.99580000  1
  C  C241  1  0.77080000  0.66600000  0.99610000  1
  C  C242  1  0.77690000  0.72840000  0.99760000  1
  C  C243  1  0.82970000  0.45790000  0.12310000  1
  C  C244  1  0.77230000  0.45200000  0.16580000  1
  C  C245  1  0.77720000  0.44850000  0.22940000  1
  C  C246  1  0.82740000  0.87660000  0.50420000  1
  C  C247  1  0.77080000  0.83400000  0.50390000  1
  C  C248  1  0.77690000  0.77160000  0.50240000  1
  C  C249  1  0.82970000  0.04210000  0.37690000  1
  C  C250  1  0.77230000  0.04800000  0.33420000  1
  C  C251  1  0.77720000  0.05150000  0.27060000  1
  C  C252  1  0.67260000  0.62340000  0.50420000  1
  C  C253  1  0.72920000  0.66600000  0.50390000  1
  C  C254  1  0.72310000  0.72840000  0.50240000  1
  C  C255  1  0.67030000  0.45790000  0.37690000  1
  C  C256  1  0.72770000  0.45200000  0.33420000  1
  C  C257  1  0.72280000  0.44850000  0.27060000  1
  C  C258  1  0.67260000  0.87660000  0.99580000  1
  C  C259  1  0.72920000  0.83400000  0.99610000  1
  C  C260  1  0.72310000  0.77160000  0.99760000  1
  C  C261  1  0.67030000  0.04210000  0.12310000  1
  C  C262  1  0.72770000  0.04800000  0.16580000  1
  C  C263  1  0.72280000  0.05150000  0.22940000  1
  O  O264  1  0.01618000  0.18448000  0.43692000  1
  O  O265  1  0.99230000  0.11889000  0.35040000  1
  O  O266  1  0.96370000  0.05360000  0.57220000  1
  O  O267  1  0.84926000  0.11581000  0.54030000  1
  O  O268  1  0.93866000  0.18232000  0.53951000  1
  O  O269  1  0.06040000  0.06040000  0.43960000  1
  O  O270  1  0.48382000  0.31552000  0.43692000  1
  O  O271  1  0.50770000  0.38111000  0.35040000  1
  O  O272  1  0.53630000  0.44640000  0.57220000  1
  O  O273  1  0.65074000  0.38419000  0.54030000  1
  O  O274  1  0.56134000  0.31768000  0.53951000  1
  O  O275  1  0.43960000  0.43960000  0.43960000  1
  O  O276  1  0.01618000  0.31552000  0.06308000  1
  O  O277  1  0.99230000  0.38111000  0.14960000  1
  O  O278  1  0.96370000  0.44640000  0.92780000  1
  O  O279  1  0.84926000  0.38419000  0.95970000  1
  O  O280  1  0.93866000  0.31768000  0.96049000  1
  O  O281  1  0.06040000  0.43960000  0.06040000  1
  O  O282  1  0.48382000  0.18448000  0.06308000  1
  O  O283  1  0.50770000  0.11889000  0.14960000  1
  O  O284  1  0.53630000  0.05360000  0.92780000  1
  O  O285  1  0.65074000  0.11581000  0.95970000  1
  O  O286  1  0.56134000  0.18232000  0.96049000  1
  O  O287  1  0.43960000  0.06040000  0.06040000  1
  O  O288  1  0.43692000  0.01618000  0.18448000  1
  O  O289  1  0.35040000  0.99230000  0.11889000  1
  O  O290  1  0.57220000  0.96370000  0.05360000  1
  O  O291  1  0.54030000  0.84926000  0.11581000  1
  O  O292  1  0.53951000  0.93866000  0.18232000  1
  O  O293  1  0.06308000  0.48382000  0.18448000  1
  O  O294  1  0.14960000  0.50770000  0.11889000  1
  O  O295  1  0.92780000  0.53630000  0.05360000  1
  O  O296  1  0.95970000  0.65074000  0.11581000  1
  O  O297  1  0.96049000  0.56134000  0.18232000  1
  O  O298  1  0.43692000  0.48382000  0.31552000  1
  O  O299  1  0.35040000  0.50770000  0.38111000  1
  O  O300  1  0.57220000  0.53630000  0.44640000  1
  O  O301  1  0.54030000  0.65074000  0.38419000  1
  O  O302  1  0.53951000  0.56134000  0.31768000  1
  O  O303  1  0.06308000  0.01618000  0.31552000  1
  O  O304  1  0.14960000  0.99230000  0.38111000  1
  O  O305  1  0.92780000  0.96370000  0.44640000  1
  O  O306  1  0.95970000  0.84926000  0.38419000  1
  O  O307  1  0.96049000  0.93866000  0.31768000  1
  O  O308  1  0.18448000  0.43692000  0.01618000  1
  O  O309  1  0.11889000  0.35040000  0.99230000  1
  O  O310  1  0.05360000  0.57220000  0.96370000  1
  O  O311  1  0.11581000  0.54030000  0.84926000  1
  O  O312  1  0.18232000  0.53951000  0.93866000  1
  O  O313  1  0.18448000  0.06308000  0.48382000  1
  O  O314  1  0.11889000  0.14960000  0.50770000  1
  O  O315  1  0.05360000  0.92780000  0.53630000  1
  O  O316  1  0.11581000  0.95970000  0.65074000  1
  O  O317  1  0.18232000  0.96049000  0.56134000  1
  O  O318  1  0.31552000  0.43692000  0.48382000  1
  O  O319  1  0.38111000  0.35040000  0.50770000  1
  O  O320  1  0.44640000  0.57220000  0.53630000  1
  O  O321  1  0.38419000  0.54030000  0.65074000  1
  O  O322  1  0.31768000  0.53951000  0.56134000  1
  O  O323  1  0.31552000  0.06308000  0.01618000  1
  O  O324  1  0.38111000  0.14960000  0.99230000  1
  O  O325  1  0.44640000  0.92780000  0.96370000  1
  O  O326  1  0.38419000  0.95970000  0.84926000  1
  O  O327  1  0.31768000  0.96049000  0.93866000  1
  O  O328  1  0.98382000  0.81552000  0.56308000  1
  O  O329  1  0.00770000  0.88111000  0.64960000  1
  O  O330  1  0.03630000  0.94640000  0.42780000  1
  O  O331  1  0.15074000  0.88419000  0.45970000  1
  O  O332  1  0.06134000  0.81768000  0.46049000  1
  O  O333  1  0.93960000  0.93960000  0.56040000  1
  O  O334  1  0.51618000  0.68448000  0.56308000  1
  O  O335  1  0.49230000  0.61889000  0.64960000  1
  O  O336  1  0.46370000  0.55360000  0.42780000  1
  O  O337  1  0.34926000  0.61581000  0.45970000  1
  O  O338  1  0.43866000  0.68232000  0.46049000  1
  O  O339  1  0.56040000  0.56040000  0.56040000  1
  O  O340  1  0.98382000  0.68448000  0.93692000  1
  O  O341  1  0.00770000  0.61889000  0.85040000  1
  O  O342  1  0.03630000  0.55360000  0.07220000  1
  O  O343  1  0.15074000  0.61581000  0.04030000  1
  O  O344  1  0.06134000  0.68232000  0.03951000  1
  O  O345  1  0.93960000  0.56040000  0.93960000  1
  O  O346  1  0.51618000  0.81552000  0.93692000  1
  O  O347  1  0.49230000  0.88111000  0.85040000  1
  O  O348  1  0.46370000  0.94640000  0.07220000  1
  O  O349  1  0.34926000  0.88419000  0.04030000  1
  O  O350  1  0.43866000  0.81768000  0.03951000  1
  O  O351  1  0.56040000  0.93960000  0.93960000  1
  O  O352  1  0.56308000  0.98382000  0.81552000  1
  O  O353  1  0.64960000  0.00770000  0.88111000  1
  O  O354  1  0.42780000  0.03630000  0.94640000  1
  O  O355  1  0.45970000  0.15074000  0.88419000  1
  O  O356  1  0.46049000  0.06134000  0.81768000  1
  O  O357  1  0.93692000  0.51618000  0.81552000  1
  O  O358  1  0.85040000  0.49230000  0.88111000  1
  O  O359  1  0.07220000  0.46370000  0.94640000  1
  O  O360  1  0.04030000  0.34926000  0.88419000  1
  O  O361  1  0.03951000  0.43866000  0.81768000  1
  O  O362  1  0.56308000  0.51618000  0.68448000  1
  O  O363  1  0.64960000  0.49230000  0.61889000  1
  O  O364  1  0.42780000  0.46370000  0.55360000  1
  O  O365  1  0.45970000  0.34926000  0.61581000  1
  O  O366  1  0.46049000  0.43866000  0.68232000  1
  O  O367  1  0.93692000  0.98382000  0.68448000  1
  O  O368  1  0.85040000  0.00770000  0.61889000  1
  O  O369  1  0.07220000  0.03630000  0.55360000  1
  O  O370  1  0.04030000  0.15074000  0.61581000  1
  O  O371  1  0.03951000  0.06134000  0.68232000  1
  O  O372  1  0.81552000  0.56308000  0.98382000  1
  O  O373  1  0.88111000  0.64960000  0.00770000  1
  O  O374  1  0.94640000  0.42780000  0.03630000  1
  O  O375  1  0.88419000  0.45970000  0.15074000  1
  O  O376  1  0.81768000  0.46049000  0.06134000  1
  O  O377  1  0.81552000  0.93692000  0.51618000  1
  O  O378  1  0.88111000  0.85040000  0.49230000  1
  O  O379  1  0.94640000  0.07220000  0.46370000  1
  O  O380  1  0.88419000  0.04030000  0.34926000  1
  O  O381  1  0.81768000  0.03951000  0.43866000  1
  O  O382  1  0.68448000  0.56308000  0.51618000  1
  O  O383  1  0.61889000  0.64960000  0.49230000  1
  O  O384  1  0.55360000  0.42780000  0.46370000  1
  O  O385  1  0.61581000  0.45970000  0.34926000  1
  O  O386  1  0.68232000  0.46049000  0.43866000  1
  O  O387  1  0.68448000  0.93692000  0.98382000  1
  O  O388  1  0.61889000  0.85040000  0.00770000  1
  O  O389  1  0.55360000  0.07220000  0.03630000  1
  O  O390  1  0.61581000  0.04030000  0.15074000  1
  O  O391  1  0.68232000  0.03951000  0.06134000  1
