# generated using pymatgen
data_Zr3H4C11N2O15
_symmetry_space_group_name_H-M   'P 1'
_cell_length_a   8.10660000
_cell_length_b   12.89566528
_cell_length_c   12.89566528
_cell_angle_alpha   68.73135455
_cell_angle_beta   85.19274134
_cell_angle_gamma   85.19274134
_symmetry_Int_Tables_number   1
_chemical_formula_structural   Zr3H4C11N2O15
_chemical_formula_sum   'Zr6 H8 C22 N4 O30'
_cell_volume   1249.80142108
_cell_formula_units_Z   2
loop_
 _symmetry_equiv_pos_site_id
 _symmetry_equiv_pos_as_xyz
  1  'x, y, z'
loop_
 _atom_site_type_symbol
 _atom_site_label
 _atom_site_symmetry_multiplicity
 _atom_site_fract_x
 _atom_site_fract_y
 _atom_site_fract_z
 _atom_site_occupancy
  C  C0  1  0.32096000  0.70635000  0.00441000  1
  C  C1  1  0.41577000  0.60126000  0.00328000  1
  C  C2  1  0.33751000  0.49896000  0.04384000  1
  C  C3  1  0.90820000  0.50441000  0.41081000  1
  C  C4  1  0.89420000  0.79490000  0.79490000  1
  C  C5  1  0.00000000  0.69640000  0.30360000  1
  C  C6  1  0.00000000  0.58840000  0.41160000  1
  C  C7  1  0.67904000  0.99559000  0.29365000  1
  C  C8  1  0.58423000  0.99672000  0.39874000  1
  C  C9  1  0.66249000  0.95616000  0.50104000  1
  C  C10  1  0.09180000  0.58919000  0.49559000  1
  C  C11  1  0.10580000  0.20510000  0.20510000  1
  C  C12  1  0.67904000  0.29365000  0.99559000  1
  C  C13  1  0.58423000  0.39874000  0.99672000  1
  C  C14  1  0.66249000  0.50104000  0.95616000  1
  C  C15  1  0.09180000  0.49559000  0.58919000  1
  C  C16  1  0.00000000  0.30360000  0.69640000  1
  C  C17  1  0.00000000  0.41160000  0.58840000  1
  C  C18  1  0.32096000  0.00441000  0.70635000  1
  C  C19  1  0.41577000  0.00328000  0.60126000  1
  C  C20  1  0.33751000  0.04384000  0.49896000  1
  C  C21  1  0.90820000  0.41081000  0.50441000  1
  H  H22  1  0.20397000  0.49561000  0.07997000  1
  H  H23  1  0.83724000  0.51511000  0.33457000  1
  H  H24  1  0.79603000  0.92003000  0.50439000  1
  H  H25  1  0.16276000  0.66543000  0.48489000  1
  H  H26  1  0.79603000  0.50439000  0.92003000  1
  H  H27  1  0.16276000  0.48489000  0.66543000  1
  H  H28  1  0.20397000  0.07997000  0.49561000  1
  H  H29  1  0.83724000  0.33457000  0.51511000  1
  N  N30  1  0.57970000  0.60075000  0.95889000  1
  N  N31  1  0.42030000  0.04111000  0.39925000  1
  N  N32  1  0.42030000  0.39925000  0.04111000  1
  N  N33  1  0.57970000  0.95889000  0.60075000  1
  O  O34  1  0.16680000  0.85508000  0.11168000  1
  O  O35  1  0.39690000  0.79023000  0.98727000  1
  O  O36  1  0.98710000  0.68146000  0.21404000  1
  O  O37  1  0.16560000  0.70014000  0.01334000  1
  O  O38  1  0.90320000  0.75098000  0.90170000  1
  O  O39  1  0.73440000  0.71300000  0.08360000  1
  O  O40  1  0.81420000  0.94335000  0.94335000  1
  O  O41  1  0.11570000  0.89700000  0.89700000  1
  O  O42  1  0.50000000  0.92170000  0.07830000  1
  O  O43  1  0.83320000  0.88832000  0.14492000  1
  O  O44  1  0.60310000  0.01273000  0.20977000  1
  O  O45  1  0.01290000  0.78596000  0.31854000  1
  O  O46  1  0.83440000  0.98666000  0.29986000  1
  O  O47  1  0.09680000  0.09830000  0.24902000  1
  O  O48  1  0.26560000  0.91640000  0.28700000  1
  O  O49  1  0.18580000  0.05665000  0.05665000  1
  O  O50  1  0.88430000  0.10300000  0.10300000  1
  O  O51  1  0.83320000  0.14492000  0.88832000  1
  O  O52  1  0.60310000  0.20977000  0.01273000  1
  O  O53  1  0.01290000  0.31854000  0.78596000  1
  O  O54  1  0.83440000  0.29986000  0.98666000  1
  O  O55  1  0.09680000  0.24902000  0.09830000  1
  O  O56  1  0.26560000  0.28700000  0.91640000  1
  O  O57  1  0.50000000  0.07830000  0.92170000  1
  O  O58  1  0.16680000  0.11168000  0.85508000  1
  O  O59  1  0.39690000  0.98727000  0.79023000  1
  O  O60  1  0.98710000  0.21404000  0.68146000  1
  O  O61  1  0.16560000  0.01334000  0.70014000  1
  O  O62  1  0.90320000  0.90170000  0.75098000  1
  O  O63  1  0.73440000  0.08360000  0.71300000  1
  Zr  Zr64  1  0.95948000  0.80237000  0.04061000  1
  Zr  Zr65  1  0.69324000  0.03666000  0.03666000  1
  Zr  Zr66  1  0.04052000  0.95939000  0.19763000  1
  Zr  Zr67  1  0.30676000  0.96334000  0.96334000  1
  Zr  Zr68  1  0.04052000  0.19763000  0.95939000  1
  Zr  Zr69  1  0.95948000  0.04061000  0.80237000  1
