# generated using pymatgen
data_Zr3H12C32(OF)12
_symmetry_space_group_name_H-M   'P 1'
_cell_length_a   15.02500000
_cell_length_b   24.25700000
_cell_length_c   24.25700000
_cell_angle_alpha   90.00000000
_cell_angle_beta   90.00000000
_cell_angle_gamma   90.00000000
_symmetry_Int_Tables_number   1
_chemical_formula_structural   Zr3H12C32(OF)12
_chemical_formula_sum   'Zr12 H48 C128 O48 F48'
_cell_volume   8840.74078623
_cell_formula_units_Z   4
loop_
 _symmetry_equiv_pos_site_id
 _symmetry_equiv_pos_as_xyz
  1  'x, y, z'
loop_
 _atom_site_type_symbol
 _atom_site_label
 _atom_site_symmetry_multiplicity
 _atom_site_fract_x
 _atom_site_fract_y
 _atom_site_fract_z
 _atom_site_occupancy
  Zr  Zr0  1  1.00000000  0.39963000  0.00000000  1
  Zr  Zr1  1  0.11689000  0.50000000  0.07268000  1
  Zr  Zr2  1  0.50000000  0.00000000  0.39963000  1
  Zr  Zr3  1  0.61689000  0.92732000  0.50000000  1
  Zr  Zr4  1  1.00000000  0.60037000  0.00000000  1
  Zr  Zr5  1  0.11689000  0.50000000  0.92732000  1
  Zr  Zr6  1  0.50000000  0.00000000  0.60037000  1
  Zr  Zr7  1  0.61689000  0.07268000  0.50000000  1
  Zr  Zr8  1  0.88311000  0.50000000  0.92732000  1
  Zr  Zr9  1  0.38311000  0.07268000  0.50000000  1
  Zr  Zr10  1  0.88311000  0.50000000  0.07268000  1
  Zr  Zr11  1  0.38311000  0.92732000  0.50000000  1
  H  H12  1  0.08840000  0.26310000  0.10430000  1
  H  H13  1  0.27000000  0.37000000  0.16480000  1
  H  H14  1  0.31950000  0.30250000  0.22740000  1
  H  H15  1  0.58840000  0.89570000  0.26310000  1
  H  H16  1  0.77000000  0.83520000  0.37000000  1
  H  H17  1  0.81950000  0.77260000  0.30250000  1
  H  H18  1  0.08840000  0.73690000  0.89570000  1
  H  H19  1  0.27000000  0.63000000  0.83520000  1
  H  H20  1  0.31950000  0.69750000  0.77260000  1
  H  H21  1  0.58840000  0.10430000  0.73690000  1
  H  H22  1  0.77000000  0.16480000  0.63000000  1
  H  H23  1  0.81950000  0.22740000  0.69750000  1
  H  H24  1  0.91160000  0.26310000  0.89570000  1
  H  H25  1  0.73000000  0.37000000  0.83520000  1
  H  H26  1  0.68050000  0.30250000  0.77260000  1
  H  H27  1  0.41160000  0.10430000  0.26310000  1
  H  H28  1  0.23000000  0.16480000  0.37000000  1
  H  H29  1  0.18050000  0.22740000  0.30250000  1
  H  H30  1  0.91160000  0.73690000  0.10430000  1
  H  H31  1  0.73000000  0.63000000  0.16480000  1
  H  H32  1  0.68050000  0.69750000  0.22740000  1
  H  H33  1  0.41160000  0.89570000  0.73690000  1
  H  H34  1  0.23000000  0.83520000  0.63000000  1
  H  H35  1  0.18050000  0.77260000  0.69750000  1
  H  H36  1  0.91160000  0.73690000  0.89570000  1
  H  H37  1  0.73000000  0.63000000  0.83520000  1
  H  H38  1  0.68050000  0.69750000  0.77260000  1
  H  H39  1  0.41160000  0.10430000  0.73690000  1
  H  H40  1  0.23000000  0.16480000  0.63000000  1
  H  H41  1  0.18050000  0.22740000  0.69750000  1
  H  H42  1  0.91160000  0.26310000  0.10430000  1
  H  H43  1  0.73000000  0.37000000  0.16480000  1
  H  H44  1  0.68050000  0.30250000  0.22740000  1
  H  H45  1  0.41160000  0.89570000  0.26310000  1
  H  H46  1  0.23000000  0.83520000  0.37000000  1
  H  H47  1  0.18050000  0.77260000  0.30250000  1
  H  H48  1  0.08840000  0.73690000  0.10430000  1
  H  H49  1  0.27000000  0.63000000  0.16480000  1
  H  H50  1  0.31950000  0.69750000  0.22740000  1
  H  H51  1  0.58840000  0.89570000  0.73690000  1
  H  H52  1  0.77000000  0.83520000  0.63000000  1
  H  H53  1  0.81950000  0.77260000  0.69750000  1
  H  H54  1  0.08840000  0.26310000  0.89570000  1
  H  H55  1  0.27000000  0.37000000  0.83520000  1
  H  H56  1  0.31950000  0.30250000  0.77260000  1
  H  H57  1  0.58840000  0.10430000  0.26310000  1
  H  H58  1  0.77000000  0.16480000  0.37000000  1
  H  H59  1  0.81950000  0.22740000  0.30250000  1
  C  C60  1  0.13930000  0.36660000  0.09300000  1
  C  C61  1  0.17440000  0.32300000  0.12870000  1
  C  C62  1  0.13530000  0.27110000  0.12930000  1
  C  C63  1  0.16400000  0.23030000  0.16640000  1
  C  C64  1  0.24290000  0.33460000  0.16510000  1
  C  C65  1  0.23310000  0.24320000  0.20300000  1
  C  C66  1  0.27250000  0.29440000  0.20250000  1
  C  C67  1  0.11470000  0.17540000  0.16320000  1
  C  C68  1  0.63930000  0.90700000  0.36660000  1
  C  C69  1  0.67440000  0.87130000  0.32300000  1
  C  C70  1  0.63530000  0.87070000  0.27110000  1
  C  C71  1  0.66400000  0.83360000  0.23030000  1
  C  C72  1  0.74290000  0.83490000  0.33460000  1
  C  C73  1  0.73310000  0.79700000  0.24320000  1
  C  C74  1  0.77250000  0.79750000  0.29440000  1
  C  C75  1  0.61470000  0.83680000  0.17540000  1
  C  C76  1  0.13930000  0.63340000  0.90700000  1
  C  C77  1  0.17440000  0.67700000  0.87130000  1
  C  C78  1  0.13530000  0.72890000  0.87070000  1
  C  C79  1  0.16400000  0.76970000  0.83360000  1
  C  C80  1  0.24290000  0.66540000  0.83490000  1
  C  C81  1  0.23310000  0.75680000  0.79700000  1
  C  C82  1  0.27250000  0.70560000  0.79750000  1
  C  C83  1  0.11470000  0.82460000  0.83680000  1
  C  C84  1  0.63930000  0.09300000  0.63340000  1
  C  C85  1  0.67440000  0.12870000  0.67700000  1
  C  C86  1  0.63530000  0.12930000  0.72890000  1
  C  C87  1  0.66400000  0.16640000  0.76970000  1
  C  C88  1  0.74290000  0.16510000  0.66540000  1
  C  C89  1  0.73310000  0.20300000  0.75680000  1
  C  C90  1  0.77250000  0.20250000  0.70560000  1
  C  C91  1  0.61470000  0.16320000  0.82460000  1
  C  C92  1  0.86070000  0.36660000  0.90700000  1
  C  C93  1  0.82560000  0.32300000  0.87130000  1
  C  C94  1  0.86470000  0.27110000  0.87070000  1
  C  C95  1  0.83600000  0.23030000  0.83360000  1
  C  C96  1  0.75710000  0.33460000  0.83490000  1
  C  C97  1  0.76690000  0.24320000  0.79700000  1
  C  C98  1  0.72750000  0.29440000  0.79750000  1
  C  C99  1  0.88530000  0.17540000  0.83680000  1
  C  C100  1  0.36070000  0.09300000  0.36660000  1
  C  C101  1  0.32560000  0.12870000  0.32300000  1
  C  C102  1  0.36470000  0.12930000  0.27110000  1
  C  C103  1  0.33600000  0.16640000  0.23030000  1
  C  C104  1  0.25710000  0.16510000  0.33460000  1
  C  C105  1  0.26690000  0.20300000  0.24320000  1
  C  C106  1  0.22750000  0.20250000  0.29440000  1
  C  C107  1  0.38530000  0.16320000  0.17540000  1
  C  C108  1  0.86070000  0.63340000  0.09300000  1
  C  C109  1  0.82560000  0.67700000  0.12870000  1
  C  C110  1  0.86470000  0.72890000  0.12930000  1
  C  C111  1  0.83600000  0.76970000  0.16640000  1
  C  C112  1  0.75710000  0.66540000  0.16510000  1
  C  C113  1  0.76690000  0.75680000  0.20300000  1
  C  C114  1  0.72750000  0.70560000  0.20250000  1
  C  C115  1  0.88530000  0.82460000  0.16320000  1
  C  C116  1  0.36070000  0.90700000  0.63340000  1
  C  C117  1  0.32560000  0.87130000  0.67700000  1
  C  C118  1  0.36470000  0.87070000  0.72890000  1
  C  C119  1  0.33600000  0.83360000  0.76970000  1
  C  C120  1  0.25710000  0.83490000  0.66540000  1
  C  C121  1  0.26690000  0.79700000  0.75680000  1
  C  C122  1  0.22750000  0.79750000  0.70560000  1
  C  C123  1  0.38530000  0.83680000  0.82460000  1
  C  C124  1  0.86070000  0.63340000  0.90700000  1
  C  C125  1  0.82560000  0.67700000  0.87130000  1
  C  C126  1  0.86470000  0.72890000  0.87070000  1
  C  C127  1  0.83600000  0.76970000  0.83360000  1
  C  C128  1  0.75710000  0.66540000  0.83490000  1
  C  C129  1  0.76690000  0.75680000  0.79700000  1
  C  C130  1  0.72750000  0.70560000  0.79750000  1
  C  C131  1  0.88530000  0.82460000  0.83680000  1
  C  C132  1  0.36070000  0.09300000  0.63340000  1
  C  C133  1  0.32560000  0.12870000  0.67700000  1
  C  C134  1  0.36470000  0.12930000  0.72890000  1
  C  C135  1  0.33600000  0.16640000  0.76970000  1
  C  C136  1  0.25710000  0.16510000  0.66540000  1
  C  C137  1  0.26690000  0.20300000  0.75680000  1
  C  C138  1  0.22750000  0.20250000  0.70560000  1
  C  C139  1  0.38530000  0.16320000  0.82460000  1
  C  C140  1  0.86070000  0.36660000  0.09300000  1
  C  C141  1  0.82560000  0.32300000  0.12870000  1
  C  C142  1  0.86470000  0.27110000  0.12930000  1
  C  C143  1  0.83600000  0.23030000  0.16640000  1
  C  C144  1  0.75710000  0.33460000  0.16510000  1
  C  C145  1  0.76690000  0.24320000  0.20300000  1
  C  C146  1  0.72750000  0.29440000  0.20250000  1
  C  C147  1  0.88530000  0.17540000  0.16320000  1
  C  C148  1  0.36070000  0.90700000  0.36660000  1
  C  C149  1  0.32560000  0.87130000  0.32300000  1
  C  C150  1  0.36470000  0.87070000  0.27110000  1
  C  C151  1  0.33600000  0.83360000  0.23030000  1
  C  C152  1  0.25710000  0.83490000  0.33460000  1
  C  C153  1  0.26690000  0.79700000  0.24320000  1
  C  C154  1  0.22750000  0.79750000  0.29440000  1
  C  C155  1  0.38530000  0.83680000  0.17540000  1
  C  C156  1  0.13930000  0.63340000  0.09300000  1
  C  C157  1  0.17440000  0.67700000  0.12870000  1
  C  C158  1  0.13530000  0.72890000  0.12930000  1
  C  C159  1  0.16400000  0.76970000  0.16640000  1
  C  C160  1  0.24290000  0.66540000  0.16510000  1
  C  C161  1  0.23310000  0.75680000  0.20300000  1
  C  C162  1  0.27250000  0.70560000  0.20250000  1
  C  C163  1  0.11470000  0.82460000  0.16320000  1
  C  C164  1  0.63930000  0.90700000  0.63340000  1
  C  C165  1  0.67440000  0.87130000  0.67700000  1
  C  C166  1  0.63530000  0.87070000  0.72890000  1
  C  C167  1  0.66400000  0.83360000  0.76970000  1
  C  C168  1  0.74290000  0.83490000  0.66540000  1
  C  C169  1  0.73310000  0.79700000  0.75680000  1
  C  C170  1  0.77250000  0.79750000  0.70560000  1
  C  C171  1  0.61470000  0.83680000  0.82460000  1
  C  C172  1  0.13930000  0.36660000  0.90700000  1
  C  C173  1  0.17440000  0.32300000  0.87130000  1
  C  C174  1  0.13530000  0.27110000  0.87070000  1
  C  C175  1  0.16400000  0.23030000  0.83360000  1
  C  C176  1  0.24290000  0.33460000  0.83490000  1
  C  C177  1  0.23310000  0.24320000  0.79700000  1
  C  C178  1  0.27250000  0.29440000  0.79750000  1
  C  C179  1  0.11470000  0.17540000  0.83680000  1
  C  C180  1  0.63930000  0.09300000  0.36660000  1
  C  C181  1  0.67440000  0.12870000  0.32300000  1
  C  C182  1  0.63530000  0.12930000  0.27110000  1
  C  C183  1  0.66400000  0.16640000  0.23030000  1
  C  C184  1  0.74290000  0.16510000  0.33460000  1
  C  C185  1  0.73310000  0.20300000  0.24320000  1
  C  C186  1  0.77250000  0.20250000  0.29440000  1
  C  C187  1  0.61470000  0.16320000  0.17540000  1
  O  O188  1  0.08650000  0.35189000  0.05427000  1
  O  O189  1  0.16450000  0.41703000  0.10280000  1
  O  O190  1  0.11600000  0.45070000  0.00000000  1
  O  O191  1  0.00000000  0.45110000  0.92720000  1
  O  O192  1  0.58650000  0.94573000  0.35189000  1
  O  O193  1  0.66450000  0.89720000  0.41703000  1
  O  O194  1  0.61600000  0.00000000  0.45070000  1
  O  O195  1  0.50000000  0.07280000  0.45110000  1
  O  O196  1  0.08650000  0.64811000  0.94573000  1
  O  O197  1  0.16450000  0.58297000  0.89720000  1
  O  O198  1  0.11600000  0.54930000  0.00000000  1
  O  O199  1  0.00000000  0.54890000  0.07280000  1
  O  O200  1  0.58650000  0.05427000  0.64811000  1
  O  O201  1  0.66450000  0.10280000  0.58297000  1
  O  O202  1  0.61600000  0.00000000  0.54930000  1
  O  O203  1  0.50000000  0.92720000  0.54890000  1
  O  O204  1  0.91350000  0.35189000  0.94573000  1
  O  O205  1  0.83550000  0.41703000  0.89720000  1
  O  O206  1  0.88400000  0.45070000  0.00000000  1
  O  O207  1  0.00000000  0.45110000  0.07280000  1
  O  O208  1  0.41350000  0.05427000  0.35189000  1
  O  O209  1  0.33550000  0.10280000  0.41703000  1
  O  O210  1  0.38400000  0.00000000  0.45070000  1
  O  O211  1  0.50000000  0.92720000  0.45110000  1
  O  O212  1  0.91350000  0.64811000  0.05427000  1
  O  O213  1  0.83550000  0.58297000  0.10280000  1
  O  O214  1  0.88400000  0.54930000  0.00000000  1
  O  O215  1  0.00000000  0.54890000  0.92720000  1
  O  O216  1  0.41350000  0.94573000  0.64811000  1
  O  O217  1  0.33550000  0.89720000  0.58297000  1
  O  O218  1  0.38400000  0.00000000  0.54930000  1
  O  O219  1  0.50000000  0.07280000  0.54890000  1
  O  O220  1  0.91350000  0.64811000  0.94573000  1
  O  O221  1  0.83550000  0.58297000  0.89720000  1
  O  O222  1  0.41350000  0.05427000  0.64811000  1
  O  O223  1  0.33550000  0.10280000  0.58297000  1
  O  O224  1  0.91350000  0.35189000  0.05427000  1
  O  O225  1  0.83550000  0.41703000  0.10280000  1
  O  O226  1  0.41350000  0.94573000  0.35189000  1
  O  O227  1  0.33550000  0.89720000  0.41703000  1
  O  O228  1  0.08650000  0.64811000  0.05427000  1
  O  O229  1  0.16450000  0.58297000  0.10280000  1
  O  O230  1  0.58650000  0.94573000  0.64811000  1
  O  O231  1  0.66450000  0.89720000  0.58297000  1
  O  O232  1  0.08650000  0.35189000  0.94573000  1
  O  O233  1  0.16450000  0.41703000  0.89720000  1
  O  O234  1  0.58650000  0.05427000  0.35189000  1
  O  O235  1  0.66450000  0.10280000  0.41703000  1
  F  F236  1  0.16670000  0.13220000  0.15120000  1
  F  F237  1  0.07340000  0.16270000  0.21050000  1
  F  F238  1  0.05130000  0.17630000  0.12440000  1
  F  F239  1  0.66666667  0.84880000  0.13220000  1
  F  F240  1  0.57340000  0.78950000  0.16270000  1
  F  F241  1  0.55130000  0.87560000  0.17630000  1
  F  F242  1  0.16670000  0.86780000  0.84880000  1
  F  F243  1  0.07340000  0.83730000  0.78950000  1
  F  F244  1  0.05130000  0.82370000  0.87560000  1
  F  F245  1  0.66666667  0.15120000  0.86780000  1
  F  F246  1  0.57340000  0.21050000  0.83730000  1
  F  F247  1  0.55130000  0.12440000  0.82370000  1
  F  F248  1  0.83330000  0.13220000  0.84880000  1
  F  F249  1  0.92660000  0.16270000  0.78950000  1
  F  F250  1  0.94870000  0.17630000  0.87560000  1
  F  F251  1  0.33333333  0.15120000  0.13220000  1
  F  F252  1  0.42660000  0.21050000  0.16270000  1
  F  F253  1  0.44870000  0.12440000  0.17630000  1
  F  F254  1  0.83330000  0.86780000  0.15120000  1
  F  F255  1  0.92660000  0.83730000  0.21050000  1
  F  F256  1  0.94870000  0.82370000  0.12440000  1
  F  F257  1  0.33333333  0.84880000  0.86780000  1
  F  F258  1  0.42660000  0.78950000  0.83730000  1
  F  F259  1  0.44870000  0.87560000  0.82370000  1
  F  F260  1  0.83330000  0.86780000  0.84880000  1
  F  F261  1  0.92660000  0.83730000  0.78950000  1
  F  F262  1  0.94870000  0.82370000  0.87560000  1
  F  F263  1  0.33333333  0.15120000  0.86780000  1
  F  F264  1  0.42660000  0.21050000  0.83730000  1
  F  F265  1  0.44870000  0.12440000  0.82370000  1
  F  F266  1  0.83330000  0.13220000  0.15120000  1
  F  F267  1  0.92660000  0.16270000  0.21050000  1
  F  F268  1  0.94870000  0.17630000  0.12440000  1
  F  F269  1  0.33333333  0.84880000  0.13220000  1
  F  F270  1  0.42660000  0.78950000  0.16270000  1
  F  F271  1  0.44870000  0.87560000  0.17630000  1
  F  F272  1  0.16670000  0.86780000  0.15120000  1
  F  F273  1  0.07340000  0.83730000  0.21050000  1
  F  F274  1  0.05130000  0.82370000  0.12440000  1
  F  F275  1  0.66666667  0.84880000  0.86780000  1
  F  F276  1  0.57340000  0.78950000  0.83730000  1
  F  F277  1  0.55130000  0.87560000  0.82370000  1
  F  F278  1  0.16670000  0.13220000  0.84880000  1
  F  F279  1  0.07340000  0.16270000  0.78950000  1
  F  F280  1  0.05130000  0.17630000  0.87560000  1
  F  F281  1  0.66666667  0.15120000  0.13220000  1
  F  F282  1  0.57340000  0.21050000  0.16270000  1
  F  F283  1  0.55130000  0.12440000  0.17630000  1
