# generated using pymatgen
data_Zr3H32(C9O4)4
_symmetry_space_group_name_H-M   'P 1'
_cell_length_a   14.08500000
_cell_length_b   34.06000000
_cell_length_c   34.06000000
_cell_angle_alpha   90.00000000
_cell_angle_beta   90.00000000
_cell_angle_gamma   90.00000000
_symmetry_Int_Tables_number   1
_chemical_formula_structural   Zr3H32(C9O4)4
_chemical_formula_sum   'Zr24 H256 C288 O128'
_cell_volume   16339.77750600
_cell_formula_units_Z   8
loop_
 _symmetry_equiv_pos_site_id
 _symmetry_equiv_pos_as_xyz
  1  'x, y, z'
loop_
 _atom_site_type_symbol
 _atom_site_label
 _atom_site_symmetry_multiplicity
 _atom_site_fract_x
 _atom_site_fract_y
 _atom_site_fract_z
 _atom_site_occupancy
  Zr  Zr0  1  0.50000000  0.44901000  0.55099000  1
  Zr  Zr1  1  0.50000000  0.05099000  0.94901000  1
  Zr  Zr2  1  0.00000000  0.94901000  0.44901000  1
  Zr  Zr3  1  0.00000000  0.55099000  0.05099000  1
  Zr  Zr4  1  0.50000000  0.55099000  0.44901000  1
  Zr  Zr5  1  0.50000000  0.94901000  0.05099000  1
  Zr  Zr6  1  0.00000000  0.05099000  0.55099000  1
  Zr  Zr7  1  0.00000000  0.44901000  0.94901000  1
  Zr  Zr8  1  0.65639000  0.52368000  0.52368000  1
  Zr  Zr9  1  0.58249000  0.45457000  0.45457000  1
  Zr  Zr10  1  0.65639000  0.97632000  0.97632000  1
  Zr  Zr11  1  0.58249000  0.04543000  0.04543000  1
  Zr  Zr12  1  0.15639000  0.97632000  0.52368000  1
  Zr  Zr13  1  0.08249000  0.04543000  0.45457000  1
  Zr  Zr14  1  0.15639000  0.52368000  0.97632000  1
  Zr  Zr15  1  0.08249000  0.45457000  0.04543000  1
  Zr  Zr16  1  0.84361000  0.47632000  0.02368000  1
  Zr  Zr17  1  0.91751000  0.54543000  0.95457000  1
  Zr  Zr18  1  0.84361000  0.02368000  0.47632000  1
  Zr  Zr19  1  0.91751000  0.95457000  0.54543000  1
  Zr  Zr20  1  0.34361000  0.02368000  0.02368000  1
  Zr  Zr21  1  0.41751000  0.95457000  0.95457000  1
  Zr  Zr22  1  0.34361000  0.47632000  0.47632000  1
  Zr  Zr23  1  0.41751000  0.54543000  0.54543000  1
  H  H24  1  0.59650000  0.26960000  0.60680000  1
  H  H25  1  0.66950000  0.23620000  0.59340000  1
  H  H26  1  0.56090000  0.23420000  0.57970000  1
  H  H27  1  0.57360000  0.32570000  0.56760000  1
  H  H28  1  0.65530000  0.12800000  0.49980000  1
  H  H29  1  0.85090000  0.26500000  0.54550000  1
  H  H30  1  0.93470000  0.23380000  0.55110000  1
  H  H31  1  0.86100000  0.24160000  0.58600000  1
  H  H32  1  0.89390000  0.16480000  0.55520000  1
  H  H33  1  0.69390000  0.33390000  0.45970000  1
  H  H34  1  0.81490000  0.24610000  0.46050000  1
  H  H35  1  0.79020000  0.28470000  0.43580000  1
  H  H36  1  0.72070000  0.24760000  0.43430000  1
  H  H37  1  0.52050000  0.19950000  0.50820000  1
  H  H38  1  0.54770000  0.17070000  0.47290000  1
  H  H39  1  0.57160000  0.21650000  0.46980000  1
  H  H40  1  0.59650000  0.23040000  0.89320000  1
  H  H41  1  0.66950000  0.26380000  0.90660000  1
  H  H42  1  0.56090000  0.26580000  0.92030000  1
  H  H43  1  0.57360000  0.17430000  0.93240000  1
  H  H44  1  0.65530000  0.37200000  0.00020000  1
  H  H45  1  0.85090000  0.23500000  0.95450000  1
  H  H46  1  0.93470000  0.26620000  0.94890000  1
  H  H47  1  0.86100000  0.25840000  0.91400000  1
  H  H48  1  0.89390000  0.33520000  0.94480000  1
  H  H49  1  0.69390000  0.16610000  0.04030000  1
  H  H50  1  0.81490000  0.25390000  0.03950000  1
  H  H51  1  0.79020000  0.21530000  0.06420000  1
  H  H52  1  0.72070000  0.25240000  0.06570000  1
  H  H53  1  0.52050000  0.30050000  0.99180000  1
  H  H54  1  0.54770000  0.32930000  0.02710000  1
  H  H55  1  0.57160000  0.28350000  0.03020000  1
  H  H56  1  0.09650000  0.89320000  0.26960000  1
  H  H57  1  0.16950000  0.90660000  0.23620000  1
  H  H58  1  0.06090000  0.92030000  0.23420000  1
  H  H59  1  0.07360000  0.93240000  0.32570000  1
  H  H60  1  0.15530000  0.00020000  0.12800000  1
  H  H61  1  0.35090000  0.95450000  0.26500000  1
  H  H62  1  0.43470000  0.94890000  0.23380000  1
  H  H63  1  0.36100000  0.91400000  0.24160000  1
  H  H64  1  0.39390000  0.94480000  0.16480000  1
  H  H65  1  0.19390000  0.04030000  0.33390000  1
  H  H66  1  0.31490000  0.03950000  0.24610000  1
  H  H67  1  0.29020000  0.06420000  0.28470000  1
  H  H68  1  0.22070000  0.06570000  0.24760000  1
  H  H69  1  0.02050000  0.99180000  0.19950000  1
  H  H70  1  0.04770000  0.02710000  0.17070000  1
  H  H71  1  0.07160000  0.03020000  0.21650000  1
  H  H72  1  0.09650000  0.60680000  0.23040000  1
  H  H73  1  0.16950000  0.59340000  0.26380000  1
  H  H74  1  0.06090000  0.57970000  0.26580000  1
  H  H75  1  0.07360000  0.56760000  0.17430000  1
  H  H76  1  0.15530000  0.49980000  0.37200000  1
  H  H77  1  0.35090000  0.54550000  0.23500000  1
  H  H78  1  0.43470000  0.55110000  0.26620000  1
  H  H79  1  0.36100000  0.58600000  0.25840000  1
  H  H80  1  0.39390000  0.55520000  0.33520000  1
  H  H81  1  0.19390000  0.45970000  0.16610000  1
  H  H82  1  0.31490000  0.46050000  0.25390000  1
  H  H83  1  0.29020000  0.43580000  0.21530000  1
  H  H84  1  0.22070000  0.43430000  0.25240000  1
  H  H85  1  0.02050000  0.50820000  0.30050000  1
  H  H86  1  0.04770000  0.47290000  0.32930000  1
  H  H87  1  0.07160000  0.46980000  0.28350000  1
  H  H88  1  0.90350000  0.73040000  0.10680000  1
  H  H89  1  0.83050000  0.76380000  0.09340000  1
  H  H90  1  0.93910000  0.76580000  0.07970000  1
  H  H91  1  0.92640000  0.67430000  0.06760000  1
  H  H92  1  0.84470000  0.87200000  0.99980000  1
  H  H93  1  0.64910000  0.73500000  0.04550000  1
  H  H94  1  0.56530000  0.76620000  0.05110000  1
  H  H95  1  0.63900000  0.75840000  0.08600000  1
  H  H96  1  0.60610000  0.83520000  0.05520000  1
  H  H97  1  0.80610000  0.66610000  0.95970000  1
  H  H98  1  0.68510000  0.75390000  0.96050000  1
  H  H99  1  0.70980000  0.71530000  0.93580000  1
  H  H100  1  0.77930000  0.75240000  0.93430000  1
  H  H101  1  0.97950000  0.80050000  0.00820000  1
  H  H102  1  0.95230000  0.82930000  0.97290000  1
  H  H103  1  0.92840000  0.78350000  0.96980000  1
  H  H104  1  0.90350000  0.76960000  0.39320000  1
  H  H105  1  0.83050000  0.73620000  0.40660000  1
  H  H106  1  0.93910000  0.73420000  0.42030000  1
  H  H107  1  0.92640000  0.82570000  0.43240000  1
  H  H108  1  0.84470000  0.62800000  0.50020000  1
  H  H109  1  0.64910000  0.76500000  0.45450000  1
  H  H110  1  0.56530000  0.73380000  0.44890000  1
  H  H111  1  0.63900000  0.74160000  0.41400000  1
  H  H112  1  0.60610000  0.66480000  0.44480000  1
  H  H113  1  0.80610000  0.83390000  0.54030000  1
  H  H114  1  0.68510000  0.74610000  0.53950000  1
  H  H115  1  0.70980000  0.78470000  0.56420000  1
  H  H116  1  0.77930000  0.74760000  0.56570000  1
  H  H117  1  0.97950000  0.69950000  0.49180000  1
  H  H118  1  0.95230000  0.67070000  0.52710000  1
  H  H119  1  0.92840000  0.71650000  0.53020000  1
  H  H120  1  0.40350000  0.10680000  0.76960000  1
  H  H121  1  0.33050000  0.09340000  0.73620000  1
  H  H122  1  0.43910000  0.07970000  0.73420000  1
  H  H123  1  0.42640000  0.06760000  0.82570000  1
  H  H124  1  0.34470000  0.99980000  0.62800000  1
  H  H125  1  0.14910000  0.04550000  0.76500000  1
  H  H126  1  0.06530000  0.05110000  0.73380000  1
  H  H127  1  0.13900000  0.08600000  0.74160000  1
  H  H128  1  0.10610000  0.05520000  0.66480000  1
  H  H129  1  0.30610000  0.95970000  0.83390000  1
  H  H130  1  0.18510000  0.96050000  0.74610000  1
  H  H131  1  0.20980000  0.93580000  0.78470000  1
  H  H132  1  0.27930000  0.93430000  0.74760000  1
  H  H133  1  0.47950000  0.00820000  0.69950000  1
  H  H134  1  0.45230000  0.97290000  0.67070000  1
  H  H135  1  0.42840000  0.96980000  0.71650000  1
  H  H136  1  0.40350000  0.39320000  0.73040000  1
  H  H137  1  0.33050000  0.40660000  0.76380000  1
  H  H138  1  0.43910000  0.42030000  0.76580000  1
  H  H139  1  0.42640000  0.43240000  0.67430000  1
  H  H140  1  0.34470000  0.50020000  0.87200000  1
  H  H141  1  0.14910000  0.45450000  0.73500000  1
  H  H142  1  0.06530000  0.44890000  0.76620000  1
  H  H143  1  0.13900000  0.41400000  0.75840000  1
  H  H144  1  0.10610000  0.44480000  0.83520000  1
  H  H145  1  0.30610000  0.54030000  0.66610000  1
  H  H146  1  0.18510000  0.53950000  0.75390000  1
  H  H147  1  0.20980000  0.56420000  0.71530000  1
  H  H148  1  0.27930000  0.56570000  0.75240000  1
  H  H149  1  0.47950000  0.49180000  0.80050000  1
  H  H150  1  0.45230000  0.52710000  0.82930000  1
  H  H151  1  0.42840000  0.53020000  0.78350000  1
  H  H152  1  0.40350000  0.73040000  0.39320000  1
  H  H153  1  0.33050000  0.76380000  0.40660000  1
  H  H154  1  0.43910000  0.76580000  0.42030000  1
  H  H155  1  0.42640000  0.67430000  0.43240000  1
  H  H156  1  0.34470000  0.87200000  0.50020000  1
  H  H157  1  0.14910000  0.73500000  0.45450000  1
  H  H158  1  0.06530000  0.76620000  0.44890000  1
  H  H159  1  0.13900000  0.75840000  0.41400000  1
  H  H160  1  0.10610000  0.83520000  0.44480000  1
  H  H161  1  0.30610000  0.66610000  0.54030000  1
  H  H162  1  0.18510000  0.75390000  0.53950000  1
  H  H163  1  0.20980000  0.71530000  0.56420000  1
  H  H164  1  0.27930000  0.75240000  0.56570000  1
  H  H165  1  0.47950000  0.80050000  0.49180000  1
  H  H166  1  0.45230000  0.82930000  0.52710000  1
  H  H167  1  0.42840000  0.78350000  0.53020000  1
  H  H168  1  0.40350000  0.76960000  0.10680000  1
  H  H169  1  0.33050000  0.73620000  0.09340000  1
  H  H170  1  0.43910000  0.73420000  0.07970000  1
  H  H171  1  0.42640000  0.82570000  0.06760000  1
  H  H172  1  0.34470000  0.62800000  0.99980000  1
  H  H173  1  0.14910000  0.76500000  0.04550000  1
  H  H174  1  0.06530000  0.73380000  0.05110000  1
  H  H175  1  0.13900000  0.74160000  0.08600000  1
  H  H176  1  0.10610000  0.66480000  0.05520000  1
  H  H177  1  0.30610000  0.83390000  0.95970000  1
  H  H178  1  0.18510000  0.74610000  0.96050000  1
  H  H179  1  0.20980000  0.78470000  0.93580000  1
  H  H180  1  0.27930000  0.74760000  0.93430000  1
  H  H181  1  0.47950000  0.69950000  0.00820000  1
  H  H182  1  0.45230000  0.67070000  0.97290000  1
  H  H183  1  0.42840000  0.71650000  0.96980000  1
  H  H184  1  0.90350000  0.10680000  0.73040000  1
  H  H185  1  0.83050000  0.09340000  0.76380000  1
  H  H186  1  0.93910000  0.07970000  0.76580000  1
  H  H187  1  0.92640000  0.06760000  0.67430000  1
  H  H188  1  0.84470000  0.99980000  0.87200000  1
  H  H189  1  0.64910000  0.04550000  0.73500000  1
  H  H190  1  0.56530000  0.05110000  0.76620000  1
  H  H191  1  0.63900000  0.08600000  0.75840000  1
  H  H192  1  0.60610000  0.05520000  0.83520000  1
  H  H193  1  0.80610000  0.95970000  0.66610000  1
  H  H194  1  0.68510000  0.96050000  0.75390000  1
  H  H195  1  0.70980000  0.93580000  0.71530000  1
  H  H196  1  0.77930000  0.93430000  0.75240000  1
  H  H197  1  0.97950000  0.00820000  0.80050000  1
  H  H198  1  0.95230000  0.97290000  0.82930000  1
  H  H199  1  0.92840000  0.96980000  0.78350000  1
  H  H200  1  0.90350000  0.39320000  0.76960000  1
  H  H201  1  0.83050000  0.40660000  0.73620000  1
  H  H202  1  0.93910000  0.42030000  0.73420000  1
  H  H203  1  0.92640000  0.43240000  0.82570000  1
  H  H204  1  0.84470000  0.50020000  0.62800000  1
  H  H205  1  0.64910000  0.45450000  0.76500000  1
  H  H206  1  0.56530000  0.44890000  0.73380000  1
  H  H207  1  0.63900000  0.41400000  0.74160000  1
  H  H208  1  0.60610000  0.44480000  0.66480000  1
  H  H209  1  0.80610000  0.54030000  0.83390000  1
  H  H210  1  0.68510000  0.53950000  0.74610000  1
  H  H211  1  0.70980000  0.56420000  0.78470000  1
  H  H212  1  0.77930000  0.56570000  0.74760000  1
  H  H213  1  0.97950000  0.49180000  0.69950000  1
  H  H214  1  0.95230000  0.52710000  0.67070000  1
  H  H215  1  0.92840000  0.53020000  0.71650000  1
  H  H216  1  0.09650000  0.26960000  0.89320000  1
  H  H217  1  0.16950000  0.23620000  0.90660000  1
  H  H218  1  0.06090000  0.23420000  0.92030000  1
  H  H219  1  0.07360000  0.32570000  0.93240000  1
  H  H220  1  0.15530000  0.12800000  0.00020000  1
  H  H221  1  0.35090000  0.26500000  0.95450000  1
  H  H222  1  0.43470000  0.23380000  0.94890000  1
  H  H223  1  0.36100000  0.24160000  0.91400000  1
  H  H224  1  0.39390000  0.16480000  0.94480000  1
  H  H225  1  0.19390000  0.33390000  0.04030000  1
  H  H226  1  0.31490000  0.24610000  0.03950000  1
  H  H227  1  0.29020000  0.28470000  0.06420000  1
  H  H228  1  0.22070000  0.24760000  0.06570000  1
  H  H229  1  0.02050000  0.19950000  0.99180000  1
  H  H230  1  0.04770000  0.17070000  0.02710000  1
  H  H231  1  0.07160000  0.21650000  0.03020000  1
  H  H232  1  0.09650000  0.23040000  0.60680000  1
  H  H233  1  0.16950000  0.26380000  0.59340000  1
  H  H234  1  0.06090000  0.26580000  0.57970000  1
  H  H235  1  0.07360000  0.17430000  0.56760000  1
  H  H236  1  0.15530000  0.37200000  0.49980000  1
  H  H237  1  0.35090000  0.23500000  0.54550000  1
  H  H238  1  0.43470000  0.26620000  0.55110000  1
  H  H239  1  0.36100000  0.25840000  0.58600000  1
  H  H240  1  0.39390000  0.33520000  0.55520000  1
  H  H241  1  0.19390000  0.16610000  0.45970000  1
  H  H242  1  0.31490000  0.25390000  0.46050000  1
  H  H243  1  0.29020000  0.21530000  0.43580000  1
  H  H244  1  0.22070000  0.25240000  0.43430000  1
  H  H245  1  0.02050000  0.30050000  0.50820000  1
  H  H246  1  0.04770000  0.32930000  0.47290000  1
  H  H247  1  0.07160000  0.28350000  0.46980000  1
  H  H248  1  0.59650000  0.89320000  0.23040000  1
  H  H249  1  0.66950000  0.90660000  0.26380000  1
  H  H250  1  0.56090000  0.92030000  0.26580000  1
  H  H251  1  0.57360000  0.93240000  0.17430000  1
  H  H252  1  0.65530000  0.00020000  0.37200000  1
  H  H253  1  0.85090000  0.95450000  0.23500000  1
  H  H254  1  0.93470000  0.94890000  0.26620000  1
  H  H255  1  0.86100000  0.91400000  0.25840000  1
  H  H256  1  0.89390000  0.94480000  0.33520000  1
  H  H257  1  0.69390000  0.04030000  0.16610000  1
  H  H258  1  0.81490000  0.03950000  0.25390000  1
  H  H259  1  0.79020000  0.06420000  0.21530000  1
  H  H260  1  0.72070000  0.06570000  0.25240000  1
  H  H261  1  0.52050000  0.99180000  0.30050000  1
  H  H262  1  0.54770000  0.02710000  0.32930000  1
  H  H263  1  0.57160000  0.03020000  0.28350000  1
  H  H264  1  0.59650000  0.60680000  0.26960000  1
  H  H265  1  0.66950000  0.59340000  0.23620000  1
  H  H266  1  0.56090000  0.57970000  0.23420000  1
  H  H267  1  0.57360000  0.56760000  0.32570000  1
  H  H268  1  0.65530000  0.49980000  0.12800000  1
  H  H269  1  0.85090000  0.54550000  0.26500000  1
  H  H270  1  0.93470000  0.55110000  0.23380000  1
  H  H271  1  0.86100000  0.58600000  0.24160000  1
  H  H272  1  0.89390000  0.55520000  0.16480000  1
  H  H273  1  0.69390000  0.45970000  0.33390000  1
  H  H274  1  0.81490000  0.46050000  0.24610000  1
  H  H275  1  0.79020000  0.43580000  0.28470000  1
  H  H276  1  0.72070000  0.43430000  0.24760000  1
  H  H277  1  0.52050000  0.50820000  0.19950000  1
  H  H278  1  0.54770000  0.47290000  0.17070000  1
  H  H279  1  0.57160000  0.46980000  0.21650000  1
  C  C280  1  0.63740000  0.27519000  0.54915000  1
  C  C281  1  0.61420000  0.25180000  0.58550000  1
  C  C282  1  0.71710000  0.21751000  0.52246000  1
  C  C283  1  0.60800000  0.31404000  0.54659000  1
  C  C284  1  0.80360000  0.20917000  0.54027000  1
  C  C285  1  0.69310000  0.14867000  0.51008000  1
  C  C286  1  0.68780000  0.25818000  0.51848000  1
  C  C287  1  0.70900000  0.28000000  0.48512000  1
  C  C288  1  0.86850000  0.23990000  0.55750000  1
  C  C289  1  0.83480000  0.17055000  0.54298000  1
  C  C290  1  0.77950000  0.14030000  0.52788000  1
  C  C291  1  0.59790000  0.37802000  0.50990000  1
  C  C292  1  0.62920000  0.33582000  0.51320000  1
  C  C293  1  0.81410000  0.09852000  0.53100000  1
  C  C294  1  0.66180000  0.18728000  0.50736000  1
  C  C295  1  0.67960000  0.31890000  0.48248000  1
  C  C296  1  0.76350000  0.26290000  0.45100000  1
  C  C297  1  0.56730000  0.19400000  0.48770000  1
  C  C298  1  0.63740000  0.22481000  0.95085000  1
  C  C299  1  0.61420000  0.24820000  0.91450000  1
  C  C300  1  0.71710000  0.28249000  0.97754000  1
  C  C301  1  0.60800000  0.18596000  0.95341000  1
  C  C302  1  0.80360000  0.29083000  0.95973000  1
  C  C303  1  0.69310000  0.35133000  0.98992000  1
  C  C304  1  0.68780000  0.24182000  0.98152000  1
  C  C305  1  0.70900000  0.22000000  0.01488000  1
  C  C306  1  0.86850000  0.26010000  0.94250000  1
  C  C307  1  0.83480000  0.32945000  0.95702000  1
  C  C308  1  0.77950000  0.35970000  0.97212000  1
  C  C309  1  0.59790000  0.12198000  0.99010000  1
  C  C310  1  0.62920000  0.16418000  0.98680000  1
  C  C311  1  0.81410000  0.40148000  0.96900000  1
  C  C312  1  0.66180000  0.31272000  0.99264000  1
  C  C313  1  0.67960000  0.18110000  0.01752000  1
  C  C314  1  0.76350000  0.23710000  0.04900000  1
  C  C315  1  0.56730000  0.30600000  0.01230000  1
  C  C316  1  0.13740000  0.95085000  0.27519000  1
  C  C317  1  0.11420000  0.91450000  0.25180000  1
  C  C318  1  0.21710000  0.97754000  0.21751000  1
  C  C319  1  0.10800000  0.95341000  0.31404000  1
  C  C320  1  0.30360000  0.95973000  0.20917000  1
  C  C321  1  0.19310000  0.98992000  0.14867000  1
  C  C322  1  0.18780000  0.98152000  0.25818000  1
  C  C323  1  0.20900000  0.01488000  0.28000000  1
  C  C324  1  0.36850000  0.94250000  0.23990000  1
  C  C325  1  0.33480000  0.95702000  0.17055000  1
  C  C326  1  0.27950000  0.97212000  0.14030000  1
  C  C327  1  0.09790000  0.99010000  0.37802000  1
  C  C328  1  0.12920000  0.98680000  0.33582000  1
  C  C329  1  0.31410000  0.96900000  0.09852000  1
  C  C330  1  0.16180000  0.99264000  0.18728000  1
  C  C331  1  0.17960000  0.01752000  0.31890000  1
  C  C332  1  0.26350000  0.04900000  0.26290000  1
  C  C333  1  0.06730000  0.01230000  0.19400000  1
  C  C334  1  0.13740000  0.54915000  0.22481000  1
  C  C335  1  0.11420000  0.58550000  0.24820000  1
  C  C336  1  0.21710000  0.52246000  0.28249000  1
  C  C337  1  0.10800000  0.54659000  0.18596000  1
  C  C338  1  0.30360000  0.54027000  0.29083000  1
  C  C339  1  0.19310000  0.51008000  0.35133000  1
  C  C340  1  0.18780000  0.51848000  0.24182000  1
  C  C341  1  0.20900000  0.48512000  0.22000000  1
  C  C342  1  0.36850000  0.55750000  0.26010000  1
  C  C343  1  0.33480000  0.54298000  0.32945000  1
  C  C344  1  0.27950000  0.52788000  0.35970000  1
  C  C345  1  0.09790000  0.50990000  0.12198000  1
  C  C346  1  0.12920000  0.51320000  0.16418000  1
  C  C347  1  0.31410000  0.53100000  0.40148000  1
  C  C348  1  0.16180000  0.50736000  0.31272000  1
  C  C349  1  0.17960000  0.48248000  0.18110000  1
  C  C350  1  0.26350000  0.45100000  0.23710000  1
  C  C351  1  0.06730000  0.48770000  0.30600000  1
  C  C352  1  0.86260000  0.72481000  0.04915000  1
  C  C353  1  0.88580000  0.74820000  0.08550000  1
  C  C354  1  0.78290000  0.78249000  0.02246000  1
  C  C355  1  0.89200000  0.68596000  0.04659000  1
  C  C356  1  0.69640000  0.79083000  0.04027000  1
  C  C357  1  0.80690000  0.85133000  0.01008000  1
  C  C358  1  0.81220000  0.74182000  0.01848000  1
  C  C359  1  0.79100000  0.72000000  0.98512000  1
  C  C360  1  0.63150000  0.76010000  0.05750000  1
  C  C361  1  0.66520000  0.82945000  0.04298000  1
  C  C362  1  0.72050000  0.85970000  0.02788000  1
  C  C363  1  0.90210000  0.62198000  0.00990000  1
  C  C364  1  0.87080000  0.66418000  0.01320000  1
  C  C365  1  0.68590000  0.90148000  0.03100000  1
  C  C366  1  0.83820000  0.81272000  0.00736000  1
  C  C367  1  0.82040000  0.68110000  0.98248000  1
  C  C368  1  0.73650000  0.73710000  0.95100000  1
  C  C369  1  0.93270000  0.80600000  0.98770000  1
  C  C370  1  0.86260000  0.77519000  0.45085000  1
  C  C371  1  0.88580000  0.75180000  0.41450000  1
  C  C372  1  0.78290000  0.71751000  0.47754000  1
  C  C373  1  0.89200000  0.81404000  0.45341000  1
  C  C374  1  0.69640000  0.70917000  0.45973000  1
  C  C375  1  0.80690000  0.64867000  0.48992000  1
  C  C376  1  0.81220000  0.75818000  0.48152000  1
  C  C377  1  0.79100000  0.78000000  0.51488000  1
  C  C378  1  0.63150000  0.73990000  0.44250000  1
  C  C379  1  0.66520000  0.67055000  0.45702000  1
  C  C380  1  0.72050000  0.64030000  0.47212000  1
  C  C381  1  0.90210000  0.87802000  0.49010000  1
  C  C382  1  0.87080000  0.83582000  0.48680000  1
  C  C383  1  0.68590000  0.59852000  0.46900000  1
  C  C384  1  0.83820000  0.68728000  0.49264000  1
  C  C385  1  0.82040000  0.81890000  0.51752000  1
  C  C386  1  0.73650000  0.76290000  0.54900000  1
  C  C387  1  0.93270000  0.69400000  0.51230000  1
  C  C388  1  0.36260000  0.04915000  0.77519000  1
  C  C389  1  0.38580000  0.08550000  0.75180000  1
  C  C390  1  0.28290000  0.02246000  0.71751000  1
  C  C391  1  0.39200000  0.04659000  0.81404000  1
  C  C392  1  0.19640000  0.04027000  0.70917000  1
  C  C393  1  0.30690000  0.01008000  0.64867000  1
  C  C394  1  0.31220000  0.01848000  0.75818000  1
  C  C395  1  0.29100000  0.98512000  0.78000000  1
  C  C396  1  0.13150000  0.05750000  0.73990000  1
  C  C397  1  0.16520000  0.04298000  0.67055000  1
  C  C398  1  0.22050000  0.02788000  0.64030000  1
  C  C399  1  0.40210000  0.00990000  0.87802000  1
  C  C400  1  0.37080000  0.01320000  0.83582000  1
  C  C401  1  0.18590000  0.03100000  0.59852000  1
  C  C402  1  0.33820000  0.00736000  0.68728000  1
  C  C403  1  0.32040000  0.98248000  0.81890000  1
  C  C404  1  0.23650000  0.95100000  0.76290000  1
  C  C405  1  0.43270000  0.98770000  0.69400000  1
  C  C406  1  0.36260000  0.45085000  0.72481000  1
  C  C407  1  0.38580000  0.41450000  0.74820000  1
  C  C408  1  0.28290000  0.47754000  0.78249000  1
  C  C409  1  0.39200000  0.45341000  0.68596000  1
  C  C410  1  0.19640000  0.45973000  0.79083000  1
  C  C411  1  0.30690000  0.48992000  0.85133000  1
  C  C412  1  0.31220000  0.48152000  0.74182000  1
  C  C413  1  0.29100000  0.51488000  0.72000000  1
  C  C414  1  0.13150000  0.44250000  0.76010000  1
  C  C415  1  0.16520000  0.45702000  0.82945000  1
  C  C416  1  0.22050000  0.47212000  0.85970000  1
  C  C417  1  0.40210000  0.49010000  0.62198000  1
  C  C418  1  0.37080000  0.48680000  0.66418000  1
  C  C419  1  0.18590000  0.46900000  0.90148000  1
  C  C420  1  0.33820000  0.49264000  0.81272000  1
  C  C421  1  0.32040000  0.51752000  0.68110000  1
  C  C422  1  0.23650000  0.54900000  0.73710000  1
  C  C423  1  0.43270000  0.51230000  0.80600000  1
  C  C424  1  0.36260000  0.72481000  0.45085000  1
  C  C425  1  0.38580000  0.74820000  0.41450000  1
  C  C426  1  0.28290000  0.78249000  0.47754000  1
  C  C427  1  0.39200000  0.68596000  0.45341000  1
  C  C428  1  0.19640000  0.79083000  0.45973000  1
  C  C429  1  0.30690000  0.85133000  0.48992000  1
  C  C430  1  0.31220000  0.74182000  0.48152000  1
  C  C431  1  0.29100000  0.72000000  0.51488000  1
  C  C432  1  0.13150000  0.76010000  0.44250000  1
  C  C433  1  0.16520000  0.82945000  0.45702000  1
  C  C434  1  0.22050000  0.85970000  0.47212000  1
  C  C435  1  0.40210000  0.62198000  0.49010000  1
  C  C436  1  0.37080000  0.66418000  0.48680000  1
  C  C437  1  0.18590000  0.90148000  0.46900000  1
  C  C438  1  0.33820000  0.81272000  0.49264000  1
  C  C439  1  0.32040000  0.68110000  0.51752000  1
  C  C440  1  0.23650000  0.73710000  0.54900000  1
  C  C441  1  0.43270000  0.80600000  0.51230000  1
  C  C442  1  0.36260000  0.77519000  0.04915000  1
  C  C443  1  0.38580000  0.75180000  0.08550000  1
  C  C444  1  0.28290000  0.71751000  0.02246000  1
  C  C445  1  0.39200000  0.81404000  0.04659000  1
  C  C446  1  0.19640000  0.70917000  0.04027000  1
  C  C447  1  0.30690000  0.64867000  0.01008000  1
  C  C448  1  0.31220000  0.75818000  0.01848000  1
  C  C449  1  0.29100000  0.78000000  0.98512000  1
  C  C450  1  0.13150000  0.73990000  0.05750000  1
  C  C451  1  0.16520000  0.67055000  0.04298000  1
  C  C452  1  0.22050000  0.64030000  0.02788000  1
  C  C453  1  0.40210000  0.87802000  0.00990000  1
  C  C454  1  0.37080000  0.83582000  0.01320000  1
  C  C455  1  0.18590000  0.59852000  0.03100000  1
  C  C456  1  0.33820000  0.68728000  0.00736000  1
  C  C457  1  0.32040000  0.81890000  0.98248000  1
  C  C458  1  0.23650000  0.76290000  0.95100000  1
  C  C459  1  0.43270000  0.69400000  0.98770000  1
  C  C460  1  0.86260000  0.04915000  0.72481000  1
  C  C461  1  0.88580000  0.08550000  0.74820000  1
  C  C462  1  0.78290000  0.02246000  0.78249000  1
  C  C463  1  0.89200000  0.04659000  0.68596000  1
  C  C464  1  0.69640000  0.04027000  0.79083000  1
  C  C465  1  0.80690000  0.01008000  0.85133000  1
  C  C466  1  0.81220000  0.01848000  0.74182000  1
  C  C467  1  0.79100000  0.98512000  0.72000000  1
  C  C468  1  0.63150000  0.05750000  0.76010000  1
  C  C469  1  0.66520000  0.04298000  0.82945000  1
  C  C470  1  0.72050000  0.02788000  0.85970000  1
  C  C471  1  0.90210000  0.00990000  0.62198000  1
  C  C472  1  0.87080000  0.01320000  0.66418000  1
  C  C473  1  0.68590000  0.03100000  0.90148000  1
  C  C474  1  0.83820000  0.00736000  0.81272000  1
  C  C475  1  0.82040000  0.98248000  0.68110000  1
  C  C476  1  0.73650000  0.95100000  0.73710000  1
  C  C477  1  0.93270000  0.98770000  0.80600000  1
  C  C478  1  0.86260000  0.45085000  0.77519000  1
  C  C479  1  0.88580000  0.41450000  0.75180000  1
  C  C480  1  0.78290000  0.47754000  0.71751000  1
  C  C481  1  0.89200000  0.45341000  0.81404000  1
  C  C482  1  0.69640000  0.45973000  0.70917000  1
  C  C483  1  0.80690000  0.48992000  0.64867000  1
  C  C484  1  0.81220000  0.48152000  0.75818000  1
  C  C485  1  0.79100000  0.51488000  0.78000000  1
  C  C486  1  0.63150000  0.44250000  0.73990000  1
  C  C487  1  0.66520000  0.45702000  0.67055000  1
  C  C488  1  0.72050000  0.47212000  0.64030000  1
  C  C489  1  0.90210000  0.49010000  0.87802000  1
  C  C490  1  0.87080000  0.48680000  0.83582000  1
  C  C491  1  0.68590000  0.46900000  0.59852000  1
  C  C492  1  0.83820000  0.49264000  0.68728000  1
  C  C493  1  0.82040000  0.51752000  0.81890000  1
  C  C494  1  0.73650000  0.54900000  0.76290000  1
  C  C495  1  0.93270000  0.51230000  0.69400000  1
  C  C496  1  0.13740000  0.27519000  0.95085000  1
  C  C497  1  0.11420000  0.25180000  0.91450000  1
  C  C498  1  0.21710000  0.21751000  0.97754000  1
  C  C499  1  0.10800000  0.31404000  0.95341000  1
  C  C500  1  0.30360000  0.20917000  0.95973000  1
  C  C501  1  0.19310000  0.14867000  0.98992000  1
  C  C502  1  0.18780000  0.25818000  0.98152000  1
  C  C503  1  0.20900000  0.28000000  0.01488000  1
  C  C504  1  0.36850000  0.23990000  0.94250000  1
  C  C505  1  0.33480000  0.17055000  0.95702000  1
  C  C506  1  0.27950000  0.14030000  0.97212000  1
  C  C507  1  0.09790000  0.37802000  0.99010000  1
  C  C508  1  0.12920000  0.33582000  0.98680000  1
  C  C509  1  0.31410000  0.09852000  0.96900000  1
  C  C510  1  0.16180000  0.18728000  0.99264000  1
  C  C511  1  0.17960000  0.31890000  0.01752000  1
  C  C512  1  0.26350000  0.26290000  0.04900000  1
  C  C513  1  0.06730000  0.19400000  0.01230000  1
  C  C514  1  0.13740000  0.22481000  0.54915000  1
  C  C515  1  0.11420000  0.24820000  0.58550000  1
  C  C516  1  0.21710000  0.28249000  0.52246000  1
  C  C517  1  0.10800000  0.18596000  0.54659000  1
  C  C518  1  0.30360000  0.29083000  0.54027000  1
  C  C519  1  0.19310000  0.35133000  0.51008000  1
  C  C520  1  0.18780000  0.24182000  0.51848000  1
  C  C521  1  0.20900000  0.22000000  0.48512000  1
  C  C522  1  0.36850000  0.26010000  0.55750000  1
  C  C523  1  0.33480000  0.32945000  0.54298000  1
  C  C524  1  0.27950000  0.35970000  0.52788000  1
  C  C525  1  0.09790000  0.12198000  0.50990000  1
  C  C526  1  0.12920000  0.16418000  0.51320000  1
  C  C527  1  0.31410000  0.40148000  0.53100000  1
  C  C528  1  0.16180000  0.31272000  0.50736000  1
  C  C529  1  0.17960000  0.18110000  0.48248000  1
  C  C530  1  0.26350000  0.23710000  0.45100000  1
  C  C531  1  0.06730000  0.30600000  0.48770000  1
  C  C532  1  0.63740000  0.95085000  0.22481000  1
  C  C533  1  0.61420000  0.91450000  0.24820000  1
  C  C534  1  0.71710000  0.97754000  0.28249000  1
  C  C535  1  0.60800000  0.95341000  0.18596000  1
  C  C536  1  0.80360000  0.95973000  0.29083000  1
  C  C537  1  0.69310000  0.98992000  0.35133000  1
  C  C538  1  0.68780000  0.98152000  0.24182000  1
  C  C539  1  0.70900000  0.01488000  0.22000000  1
  C  C540  1  0.86850000  0.94250000  0.26010000  1
  C  C541  1  0.83480000  0.95702000  0.32945000  1
  C  C542  1  0.77950000  0.97212000  0.35970000  1
  C  C543  1  0.59790000  0.99010000  0.12198000  1
  C  C544  1  0.62920000  0.98680000  0.16418000  1
  C  C545  1  0.81410000  0.96900000  0.40148000  1
  C  C546  1  0.66180000  0.99264000  0.31272000  1
  C  C547  1  0.67960000  0.01752000  0.18110000  1
  C  C548  1  0.76350000  0.04900000  0.23710000  1
  C  C549  1  0.56730000  0.01230000  0.30600000  1
  C  C550  1  0.63740000  0.54915000  0.27519000  1
  C  C551  1  0.61420000  0.58550000  0.25180000  1
  C  C552  1  0.71710000  0.52246000  0.21751000  1
  C  C553  1  0.60800000  0.54659000  0.31404000  1
  C  C554  1  0.80360000  0.54027000  0.20917000  1
  C  C555  1  0.69310000  0.51008000  0.14867000  1
  C  C556  1  0.68780000  0.51848000  0.25818000  1
  C  C557  1  0.70900000  0.48512000  0.28000000  1
  C  C558  1  0.86850000  0.55750000  0.23990000  1
  C  C559  1  0.83480000  0.54298000  0.17055000  1
  C  C560  1  0.77950000  0.52788000  0.14030000  1
  C  C561  1  0.59790000  0.50990000  0.37802000  1
  C  C562  1  0.62920000  0.51320000  0.33582000  1
  C  C563  1  0.81410000  0.53100000  0.09852000  1
  C  C564  1  0.66180000  0.50736000  0.18728000  1
  C  C565  1  0.67960000  0.48248000  0.31890000  1
  C  C566  1  0.76350000  0.45100000  0.26290000  1
  C  C567  1  0.56730000  0.48770000  0.19400000  1
  O  O568  1  0.56240000  0.39204000  0.54117000  1
  O  O569  1  0.53660000  0.50976000  0.55900000  1
  O  O570  1  0.61780000  0.46380000  0.51376000  1
  O  O571  1  0.88370000  0.09281000  0.55427000  1
  O  O572  1  0.61690000  0.39520000  0.47940000  1
  O  O573  1  0.78020000  0.07410000  0.50680000  1
  O  O574  1  0.56240000  0.10796000  0.95883000  1
  O  O575  1  0.53660000  0.99024000  0.94100000  1
  O  O576  1  0.61780000  0.03620000  0.98624000  1
  O  O577  1  0.88370000  0.40719000  0.94573000  1
  O  O578  1  0.61690000  0.10480000  0.02060000  1
  O  O579  1  0.78020000  0.42590000  0.99320000  1
  O  O580  1  0.06240000  0.95883000  0.39204000  1
  O  O581  1  0.03660000  0.94100000  0.50976000  1
  O  O582  1  0.11780000  0.98624000  0.46380000  1
  O  O583  1  0.38370000  0.94573000  0.09281000  1
  O  O584  1  0.11690000  0.02060000  0.39520000  1
  O  O585  1  0.28020000  0.99320000  0.07410000  1
  O  O586  1  0.06240000  0.54117000  0.10796000  1
  O  O587  1  0.03660000  0.55900000  0.99024000  1
  O  O588  1  0.11780000  0.51376000  0.03620000  1
  O  O589  1  0.38370000  0.55427000  0.40719000  1
  O  O590  1  0.11690000  0.47940000  0.10480000  1
  O  O591  1  0.28020000  0.50680000  0.42590000  1
  O  O592  1  0.93760000  0.60796000  0.04117000  1
  O  O593  1  0.96340000  0.49024000  0.05900000  1
  O  O594  1  0.88220000  0.53620000  0.01376000  1
  O  O595  1  0.61630000  0.90719000  0.05427000  1
  O  O596  1  0.88310000  0.60480000  0.97940000  1
  O  O597  1  0.71980000  0.92590000  0.00680000  1
  O  O598  1  0.93760000  0.89204000  0.45883000  1
  O  O599  1  0.96340000  0.00976000  0.44100000  1
  O  O600  1  0.88220000  0.96380000  0.48624000  1
  O  O601  1  0.61630000  0.59281000  0.44573000  1
  O  O602  1  0.88310000  0.89520000  0.52060000  1
  O  O603  1  0.71980000  0.57410000  0.49320000  1
  O  O604  1  0.43760000  0.04117000  0.89204000  1
  O  O605  1  0.46340000  0.05900000  0.00976000  1
  O  O606  1  0.38220000  0.01376000  0.96380000  1
  O  O607  1  0.11630000  0.05427000  0.59281000  1
  O  O608  1  0.38310000  0.97940000  0.89520000  1
  O  O609  1  0.21980000  0.00680000  0.57410000  1
  O  O610  1  0.43760000  0.45883000  0.60796000  1
  O  O611  1  0.46340000  0.44100000  0.49024000  1
  O  O612  1  0.38220000  0.48624000  0.53620000  1
  O  O613  1  0.11630000  0.44573000  0.90719000  1
  O  O614  1  0.38310000  0.52060000  0.60480000  1
  O  O615  1  0.21980000  0.49320000  0.92590000  1
  O  O616  1  0.43760000  0.60796000  0.45883000  1
  O  O617  1  0.46340000  0.49024000  0.44100000  1
  O  O618  1  0.38220000  0.53620000  0.48624000  1
  O  O619  1  0.11630000  0.90719000  0.44573000  1
  O  O620  1  0.38310000  0.60480000  0.52060000  1
  O  O621  1  0.21980000  0.92590000  0.49320000  1
  O  O622  1  0.43760000  0.89204000  0.04117000  1
  O  O623  1  0.46340000  0.00976000  0.05900000  1
  O  O624  1  0.38220000  0.96380000  0.01376000  1
  O  O625  1  0.11630000  0.59281000  0.05427000  1
  O  O626  1  0.38310000  0.89520000  0.97940000  1
  O  O627  1  0.21980000  0.57410000  0.00680000  1
  O  O628  1  0.93760000  0.04117000  0.60796000  1
  O  O629  1  0.96340000  0.05900000  0.49024000  1
  O  O630  1  0.88220000  0.01376000  0.53620000  1
  O  O631  1  0.61630000  0.05427000  0.90719000  1
  O  O632  1  0.88310000  0.97940000  0.60480000  1
  O  O633  1  0.71980000  0.00680000  0.92590000  1
  O  O634  1  0.93760000  0.45883000  0.89204000  1
  O  O635  1  0.96340000  0.44100000  0.00976000  1
  O  O636  1  0.88220000  0.48624000  0.96380000  1
  O  O637  1  0.61630000  0.44573000  0.59281000  1
  O  O638  1  0.88310000  0.52060000  0.89520000  1
  O  O639  1  0.71980000  0.49320000  0.57410000  1
  O  O640  1  0.06240000  0.39204000  0.95883000  1
  O  O641  1  0.03660000  0.50976000  0.94100000  1
  O  O642  1  0.11780000  0.46380000  0.98624000  1
  O  O643  1  0.38370000  0.09281000  0.94573000  1
  O  O644  1  0.11690000  0.39520000  0.02060000  1
  O  O645  1  0.28020000  0.07410000  0.99320000  1
  O  O646  1  0.06240000  0.10796000  0.54117000  1
  O  O647  1  0.03660000  0.99024000  0.55900000  1
  O  O648  1  0.11780000  0.03620000  0.51376000  1
  O  O649  1  0.38370000  0.40719000  0.55427000  1
  O  O650  1  0.11690000  0.10480000  0.47940000  1
  O  O651  1  0.28020000  0.42590000  0.50680000  1
  O  O652  1  0.56240000  0.95883000  0.10796000  1
  O  O653  1  0.53660000  0.94100000  0.99024000  1
  O  O654  1  0.61780000  0.98624000  0.03620000  1
  O  O655  1  0.88370000  0.94573000  0.40719000  1
  O  O656  1  0.61690000  0.02060000  0.10480000  1
  O  O657  1  0.78020000  0.99320000  0.42590000  1
  O  O658  1  0.56240000  0.54117000  0.39204000  1
  O  O659  1  0.53660000  0.55900000  0.50976000  1
  O  O660  1  0.61780000  0.51376000  0.46380000  1
  O  O661  1  0.88370000  0.55427000  0.09281000  1
  O  O662  1  0.61690000  0.47940000  0.39520000  1
  O  O663  1  0.78020000  0.50680000  0.07410000  1
  O  O664  1  0.52200000  0.41230000  0.41230000  1
  O  O665  1  0.73690000  0.44680000  0.44680000  1
  O  O666  1  0.68020000  0.57050000  0.57050000  1
  O  O667  1  0.80080000  0.50250000  0.50250000  1
  O  O668  1  0.52200000  0.08770000  0.08770000  1
  O  O669  1  0.73690000  0.05320000  0.05320000  1
  O  O670  1  0.68020000  0.92950000  0.92950000  1
  O  O671  1  0.80080000  0.99750000  0.99750000  1
  O  O672  1  0.02200000  0.08770000  0.41230000  1
  O  O673  1  0.23690000  0.05320000  0.44680000  1
  O  O674  1  0.18020000  0.92950000  0.57050000  1
  O  O675  1  0.30080000  0.99750000  0.50250000  1
  O  O676  1  0.02200000  0.41230000  0.08770000  1
  O  O677  1  0.23690000  0.44680000  0.05320000  1
  O  O678  1  0.18020000  0.57050000  0.92950000  1
  O  O679  1  0.30080000  0.50250000  0.99750000  1
  O  O680  1  0.97800000  0.58770000  0.91230000  1
  O  O681  1  0.76310000  0.55320000  0.94680000  1
  O  O682  1  0.81980000  0.42950000  0.07050000  1
  O  O683  1  0.69920000  0.49750000  0.00250000  1
  O  O684  1  0.97800000  0.91230000  0.58770000  1
  O  O685  1  0.76310000  0.94680000  0.55320000  1
  O  O686  1  0.81980000  0.07050000  0.42950000  1
  O  O687  1  0.69920000  0.00250000  0.49750000  1
  O  O688  1  0.47800000  0.91230000  0.91230000  1
  O  O689  1  0.26310000  0.94680000  0.94680000  1
  O  O690  1  0.31980000  0.07050000  0.07050000  1
  O  O691  1  0.19920000  0.00250000  0.00250000  1
  O  O692  1  0.47800000  0.58770000  0.58770000  1
  O  O693  1  0.26310000  0.55320000  0.55320000  1
  O  O694  1  0.31980000  0.42950000  0.42950000  1
  O  O695  1  0.19920000  0.49750000  0.49750000  1
