# generated using pymatgen
data_Zr3H16(C17O8)2
_symmetry_space_group_name_H-M   'P 1'
_cell_length_a   11.19390000
_cell_length_b   20.14400425
_cell_length_c   20.14400425
_cell_angle_alpha   120.00888145
_cell_angle_beta   90.00000000
_cell_angle_gamma   90.00000000
_symmetry_Int_Tables_number   1
_chemical_formula_structural   Zr3H16(C17O8)2
_chemical_formula_sum   'Zr6 H32 C68 O32'
_cell_volume   3933.36989253
_cell_formula_units_Z   2
loop_
 _symmetry_equiv_pos_site_id
 _symmetry_equiv_pos_as_xyz
  1  'x, y, z'
loop_
 _atom_site_type_symbol
 _atom_site_label
 _atom_site_symmetry_multiplicity
 _atom_site_fract_x
 _atom_site_fract_y
 _atom_site_fract_z
 _atom_site_occupancy
  C  C0  1  0.56261000  0.43505000  0.99531000  1
  C  C1  1  0.63090000  0.37692000  0.00292000  1
  C  C2  1  0.69923000  0.32496000  0.94062000  1
  C  C3  1  0.75872000  0.26607000  0.94345000  1
  C  C4  1  0.62523000  0.37043000  0.06913000  1
  C  C5  1  0.81300000  0.19250000  0.00620000  1
  C  C6  1  0.75069000  0.25756000  0.00828000  1
  C  C7  1  0.68428000  0.31046000  0.07172000  1
  C  C8  1  0.62310000  0.50000000  0.00000000  1
  C  C9  1  0.56261000  0.56495000  0.00469000  1
  C  C10  1  0.63090000  0.62308000  0.99708000  1
  C  C11  1  0.69923000  0.67504000  0.05938000  1
  C  C12  1  0.75872000  0.73393000  0.05655000  1
  C  C13  1  0.62523000  0.62957000  0.93087000  1
  C  C14  1  0.81300000  0.80750000  0.99380000  1
  C  C15  1  0.75069000  0.74244000  0.99172000  1
  C  C16  1  0.68428000  0.68954000  0.92828000  1
  C  C17  1  0.43739000  0.99531000  0.43505000  1
  C  C18  1  0.36910000  0.00292000  0.37692000  1
  C  C19  1  0.30077000  0.94062000  0.32496000  1
  C  C20  1  0.24128000  0.94345000  0.26607000  1
  C  C21  1  0.37477000  0.06913000  0.37043000  1
  C  C22  1  0.18700000  0.00620000  0.19250000  1
  C  C23  1  0.24931000  0.00828000  0.25756000  1
  C  C24  1  0.31572000  0.07172000  0.31046000  1
  C  C25  1  0.37690000  0.00000000  0.50000000  1
  C  C26  1  0.43739000  0.00469000  0.56495000  1
  C  C27  1  0.36910000  0.99708000  0.62308000  1
  C  C28  1  0.30077000  0.05938000  0.67504000  1
  C  C29  1  0.24128000  0.05655000  0.73393000  1
  C  C30  1  0.37477000  0.93087000  0.62957000  1
  C  C31  1  0.18700000  0.99380000  0.80750000  1
  C  C32  1  0.24931000  0.99172000  0.74244000  1
  C  C33  1  0.31572000  0.92828000  0.68954000  1
  C  C34  1  0.43739000  0.56495000  0.00469000  1
  C  C35  1  0.36910000  0.62308000  0.99708000  1
  C  C36  1  0.30077000  0.67504000  0.05938000  1
  C  C37  1  0.24128000  0.73393000  0.05655000  1
  C  C38  1  0.37477000  0.62957000  0.93087000  1
  C  C39  1  0.18700000  0.80750000  0.99380000  1
  C  C40  1  0.24931000  0.74244000  0.99172000  1
  C  C41  1  0.31572000  0.68954000  0.92828000  1
  C  C42  1  0.37690000  0.50000000  0.00000000  1
  C  C43  1  0.43739000  0.43505000  0.99531000  1
  C  C44  1  0.36910000  0.37692000  0.00292000  1
  C  C45  1  0.30077000  0.32496000  0.94062000  1
  C  C46  1  0.24128000  0.26607000  0.94345000  1
  C  C47  1  0.37477000  0.37043000  0.06913000  1
  C  C48  1  0.18700000  0.19250000  0.00620000  1
  C  C49  1  0.24931000  0.25756000  0.00828000  1
  C  C50  1  0.31572000  0.31046000  0.07172000  1
  C  C51  1  0.56261000  0.00469000  0.56495000  1
  C  C52  1  0.63090000  0.99708000  0.62308000  1
  C  C53  1  0.69923000  0.05938000  0.67504000  1
  C  C54  1  0.75872000  0.05655000  0.73393000  1
  C  C55  1  0.62523000  0.93087000  0.62957000  1
  C  C56  1  0.81300000  0.99380000  0.80750000  1
  C  C57  1  0.75069000  0.99172000  0.74244000  1
  C  C58  1  0.68428000  0.92828000  0.68954000  1
  C  C59  1  0.62310000  0.00000000  0.50000000  1
  C  C60  1  0.56261000  0.99531000  0.43505000  1
  C  C61  1  0.63090000  0.00292000  0.37692000  1
  C  C62  1  0.69923000  0.94062000  0.32496000  1
  C  C63  1  0.75872000  0.94345000  0.26607000  1
  C  C64  1  0.62523000  0.06913000  0.37043000  1
  C  C65  1  0.81300000  0.00620000  0.19250000  1
  C  C66  1  0.75069000  0.00828000  0.25756000  1
  C  C67  1  0.68428000  0.07172000  0.31046000  1
  H  H68  1  0.70619000  0.33090000  0.88736000  1
  H  H69  1  0.81510000  0.22376000  0.89264000  1
  H  H70  1  0.57236000  0.41411000  0.12113000  1
  H  H71  1  0.67807000  0.30497000  0.12527000  1
  H  H72  1  0.70619000  0.66910000  0.11264000  1
  H  H73  1  0.81510000  0.77624000  0.10736000  1
  H  H74  1  0.57236000  0.58589000  0.87887000  1
  H  H75  1  0.67807000  0.69503000  0.87473000  1
  H  H76  1  0.29381000  0.88736000  0.33090000  1
  H  H77  1  0.18490000  0.89264000  0.22376000  1
  H  H78  1  0.42764000  0.12113000  0.41411000  1
  H  H79  1  0.32193000  0.12527000  0.30497000  1
  H  H80  1  0.29381000  0.11264000  0.66910000  1
  H  H81  1  0.18490000  0.10736000  0.77624000  1
  H  H82  1  0.42764000  0.87887000  0.58589000  1
  H  H83  1  0.32193000  0.87473000  0.69503000  1
  H  H84  1  0.29381000  0.66910000  0.11264000  1
  H  H85  1  0.18490000  0.77624000  0.10736000  1
  H  H86  1  0.42764000  0.58589000  0.87887000  1
  H  H87  1  0.32193000  0.69503000  0.87473000  1
  H  H88  1  0.29381000  0.33090000  0.88736000  1
  H  H89  1  0.18490000  0.22376000  0.89264000  1
  H  H90  1  0.42764000  0.41411000  0.12113000  1
  H  H91  1  0.32193000  0.30497000  0.12527000  1
  H  H92  1  0.70619000  0.11264000  0.66910000  1
  H  H93  1  0.81510000  0.10736000  0.77624000  1
  H  H94  1  0.57236000  0.87887000  0.58589000  1
  H  H95  1  0.67807000  0.87473000  0.69503000  1
  H  H96  1  0.70619000  0.88736000  0.33090000  1
  H  H97  1  0.81510000  0.89264000  0.22376000  1
  H  H98  1  0.57236000  0.12113000  0.41411000  1
  H  H99  1  0.67807000  0.12527000  0.30497000  1
  O  O100  1  0.89800000  0.17145000  0.95949000  1
  O  O101  1  0.78050000  0.15969000  0.04451000  1
  O  O102  1  0.12870000  0.18505000  0.18505000  1
  O  O103  1  0.34600000  0.05930000  0.05930000  1
  O  O104  1  0.00000000  0.06606000  0.14034000  1
  O  O105  1  0.17930000  0.96034000  0.03966000  1
  O  O106  1  0.89800000  0.82855000  0.04051000  1
  O  O107  1  0.78050000  0.84031000  0.95549000  1
  O  O108  1  0.12870000  0.81495000  0.81495000  1
  O  O109  1  0.34600000  0.94070000  0.94070000  1
  O  O110  1  0.00000000  0.93394000  0.85966000  1
  O  O111  1  0.17930000  0.03966000  0.96034000  1
  O  O112  1  0.10200000  0.95949000  0.17145000  1
  O  O113  1  0.21950000  0.04451000  0.15969000  1
  O  O114  1  0.87130000  0.18505000  0.18505000  1
  O  O115  1  0.65400000  0.05930000  0.05930000  1
  O  O116  1  1.00000000  0.14034000  0.06606000  1
  O  O117  1  0.82070000  0.03966000  0.96034000  1
  O  O118  1  0.10200000  0.04051000  0.82855000  1
  O  O119  1  0.21950000  0.95549000  0.84031000  1
  O  O120  1  0.87130000  0.81495000  0.81495000  1
  O  O121  1  0.65400000  0.94070000  0.94070000  1
  O  O122  1  0.00000000  0.85966000  0.93394000  1
  O  O123  1  0.82070000  0.96034000  0.03966000  1
  O  O124  1  0.10200000  0.82855000  0.04051000  1
  O  O125  1  0.21950000  0.84031000  0.95549000  1
  O  O126  1  0.10200000  0.17145000  0.95949000  1
  O  O127  1  0.21950000  0.15969000  0.04451000  1
  O  O128  1  0.89800000  0.04051000  0.82855000  1
  O  O129  1  0.78050000  0.95549000  0.84031000  1
  O  O130  1  0.89800000  0.95949000  0.17145000  1
  O  O131  1  0.78050000  0.04451000  0.15969000  1
  Zr  Zr132  1  0.00000000  0.93432000  0.06568000  1
  Zr  Zr133  1  0.15350000  0.08113000  0.08113000  1
  Zr  Zr134  1  0.00000000  0.06568000  0.93432000  1
  Zr  Zr135  1  0.15350000  0.91887000  0.91887000  1
  Zr  Zr136  1  0.84650000  0.08113000  0.08113000  1
  Zr  Zr137  1  0.84650000  0.91887000  0.91887000  1
