# generated using pymatgen
data_Zr3Ni3H18C36Br6(N3O10)2
_symmetry_space_group_name_H-M   'P 1'
_cell_length_a   26.27580000
_cell_length_b   26.27580000
_cell_length_c   26.27580000
_cell_angle_alpha   90.00000000
_cell_angle_beta   90.00000000
_cell_angle_gamma   90.00000000
_symmetry_Int_Tables_number   1
_chemical_formula_structural   Zr3Ni3H18C36Br6(N3O10)2
_chemical_formula_sum   'Zr24 Ni24 H144 C288 Br48 N48 O160'
_cell_volume   18141.27649882
_cell_formula_units_Z   8
loop_
 _symmetry_equiv_pos_site_id
 _symmetry_equiv_pos_as_xyz
  1  'x, y, z'
loop_
 _atom_site_type_symbol
 _atom_site_label
 _atom_site_symmetry_multiplicity
 _atom_site_fract_x
 _atom_site_fract_y
 _atom_site_fract_z
 _atom_site_occupancy
  Zr  Zr0  1  0.48614000  0.09207000  0.01152000  1
  Zr  Zr1  1  0.01386000  0.90793000  0.51152000  1
  Zr  Zr2  1  0.98614000  0.40793000  0.98848000  1
  Zr  Zr3  1  0.51386000  0.59207000  0.48848000  1
  Zr  Zr4  1  0.01152000  0.48614000  0.09207000  1
  Zr  Zr5  1  0.48848000  0.51386000  0.59207000  1
  Zr  Zr6  1  0.51152000  0.01386000  0.90793000  1
  Zr  Zr7  1  0.98848000  0.98614000  0.40793000  1
  Zr  Zr8  1  0.09207000  0.01152000  0.48614000  1
  Zr  Zr9  1  0.59207000  0.48848000  0.51386000  1
  Zr  Zr10  1  0.90793000  0.51152000  0.01386000  1
  Zr  Zr11  1  0.40793000  0.98848000  0.98614000  1
  Zr  Zr12  1  0.51386000  0.90793000  0.98848000  1
  Zr  Zr13  1  0.98614000  0.09207000  0.48848000  1
  Zr  Zr14  1  0.01386000  0.59207000  0.01152000  1
  Zr  Zr15  1  0.48614000  0.40793000  0.51152000  1
  Zr  Zr16  1  0.98848000  0.51386000  0.90793000  1
  Zr  Zr17  1  0.51152000  0.48614000  0.40793000  1
  Zr  Zr18  1  0.48848000  0.98614000  0.09207000  1
  Zr  Zr19  1  0.01152000  0.01386000  0.59207000  1
  Zr  Zr20  1  0.90793000  0.98848000  0.51386000  1
  Zr  Zr21  1  0.40793000  0.51152000  0.48614000  1
  Zr  Zr22  1  0.09207000  0.48848000  0.98614000  1
  Zr  Zr23  1  0.59207000  0.01152000  0.01386000  1
  Ni  Ni24  1  0.29570000  0.29625000  0.00610000  1
  Ni  Ni25  1  0.20430000  0.70375000  0.50610000  1
  Ni  Ni26  1  0.79570000  0.20375000  0.99390000  1
  Ni  Ni27  1  0.70430000  0.79625000  0.49390000  1
  Ni  Ni28  1  0.00610000  0.29570000  0.29625000  1
  Ni  Ni29  1  0.49390000  0.70430000  0.79625000  1
  Ni  Ni30  1  0.50610000  0.20430000  0.70375000  1
  Ni  Ni31  1  0.99390000  0.79570000  0.20375000  1
  Ni  Ni32  1  0.29625000  0.00610000  0.29570000  1
  Ni  Ni33  1  0.79625000  0.49390000  0.70430000  1
  Ni  Ni34  1  0.70375000  0.50610000  0.20430000  1
  Ni  Ni35  1  0.20375000  0.99390000  0.79570000  1
  Ni  Ni36  1  0.70430000  0.70375000  0.99390000  1
  Ni  Ni37  1  0.79570000  0.29625000  0.49390000  1
  Ni  Ni38  1  0.20430000  0.79625000  0.00610000  1
  Ni  Ni39  1  0.29570000  0.20375000  0.50610000  1
  Ni  Ni40  1  0.99390000  0.70430000  0.70375000  1
  Ni  Ni41  1  0.50610000  0.29570000  0.20375000  1
  Ni  Ni42  1  0.49390000  0.79570000  0.29625000  1
  Ni  Ni43  1  0.00610000  0.20430000  0.79625000  1
  Ni  Ni44  1  0.70375000  0.99390000  0.70430000  1
  Ni  Ni45  1  0.20375000  0.50610000  0.29570000  1
  Ni  Ni46  1  0.29625000  0.49390000  0.79570000  1
  Ni  Ni47  1  0.79625000  0.00610000  0.20430000  1
  H  H48  1  0.36051000  0.20034000  0.00257000  1
  H  H49  1  0.27084000  0.08554000  0.95771000  1
  H  H50  1  0.19884000  0.14146000  0.96600000  1
  H  H51  1  0.19908000  0.36367000  0.98521000  1
  H  H52  1  0.08415000  0.26730000  0.95508000  1
  H  H53  1  0.14429000  0.20078000  0.94593000  1
  H  H54  1  0.13949000  0.79966000  0.50257000  1
  H  H55  1  0.22916000  0.91446000  0.45771000  1
  H  H56  1  0.30116000  0.85854000  0.46600000  1
  H  H57  1  0.30092000  0.63633000  0.48521000  1
  H  H58  1  0.41585000  0.73270000  0.45508000  1
  H  H59  1  0.35571000  0.79922000  0.44593000  1
  H  H60  1  0.86051000  0.29966000  0.99743000  1
  H  H61  1  0.77084000  0.41446000  0.04229000  1
  H  H62  1  0.69884000  0.35854000  0.03400000  1
  H  H63  1  0.69908000  0.13633000  0.01479000  1
  H  H64  1  0.58415000  0.23270000  0.04492000  1
  H  H65  1  0.64429000  0.29922000  0.05407000  1
  H  H66  1  0.63949000  0.70034000  0.49743000  1
  H  H67  1  0.72916000  0.58554000  0.54229000  1
  H  H68  1  0.80116000  0.64146000  0.53400000  1
  H  H69  1  0.80092000  0.86367000  0.51479000  1
  H  H70  1  0.91585000  0.76730000  0.54492000  1
  H  H71  1  0.85571000  0.70078000  0.55407000  1
  H  H72  1  0.00257000  0.36051000  0.20034000  1
  H  H73  1  0.95771000  0.27084000  0.08554000  1
  H  H74  1  0.96600000  0.19884000  0.14146000  1
  H  H75  1  0.98521000  0.19908000  0.36367000  1
  H  H76  1  0.95508000  0.08415000  0.26730000  1
  H  H77  1  0.94593000  0.14429000  0.20078000  1
  H  H78  1  0.49743000  0.63949000  0.70034000  1
  H  H79  1  0.54229000  0.72916000  0.58554000  1
  H  H80  1  0.53400000  0.80116000  0.64146000  1
  H  H81  1  0.51479000  0.80092000  0.86367000  1
  H  H82  1  0.54492000  0.91585000  0.76730000  1
  H  H83  1  0.55407000  0.85571000  0.70078000  1
  H  H84  1  0.50257000  0.13949000  0.79966000  1
  H  H85  1  0.45771000  0.22916000  0.91446000  1
  H  H86  1  0.46600000  0.30116000  0.85854000  1
  H  H87  1  0.48521000  0.30092000  0.63633000  1
  H  H88  1  0.45508000  0.41585000  0.73270000  1
  H  H89  1  0.44593000  0.35571000  0.79922000  1
  H  H90  1  0.99743000  0.86051000  0.29966000  1
  H  H91  1  0.04229000  0.77084000  0.41446000  1
  H  H92  1  0.03400000  0.69884000  0.35854000  1
  H  H93  1  0.01479000  0.69908000  0.13633000  1
  H  H94  1  0.04492000  0.58415000  0.23270000  1
  H  H95  1  0.05407000  0.64429000  0.29922000  1
  H  H96  1  0.20034000  0.00257000  0.36051000  1
  H  H97  1  0.08554000  0.95771000  0.27084000  1
  H  H98  1  0.14146000  0.96600000  0.19884000  1
  H  H99  1  0.36367000  0.98521000  0.19908000  1
  H  H100  1  0.26730000  0.95508000  0.08415000  1
  H  H101  1  0.20078000  0.94593000  0.14429000  1
  H  H102  1  0.70034000  0.49743000  0.63949000  1
  H  H103  1  0.58554000  0.54229000  0.72916000  1
  H  H104  1  0.64146000  0.53400000  0.80116000  1
  H  H105  1  0.86367000  0.51479000  0.80092000  1
  H  H106  1  0.76730000  0.54492000  0.91585000  1
  H  H107  1  0.70078000  0.55407000  0.85571000  1
  H  H108  1  0.79966000  0.50257000  0.13949000  1
  H  H109  1  0.91446000  0.45771000  0.22916000  1
  H  H110  1  0.85854000  0.46600000  0.30116000  1
  H  H111  1  0.63633000  0.48521000  0.30092000  1
  H  H112  1  0.73270000  0.45508000  0.41585000  1
  H  H113  1  0.79922000  0.44593000  0.35571000  1
  H  H114  1  0.29966000  0.99743000  0.86051000  1
  H  H115  1  0.41446000  0.04229000  0.77084000  1
  H  H116  1  0.35854000  0.03400000  0.69884000  1
  H  H117  1  0.13633000  0.01479000  0.69908000  1
  H  H118  1  0.23270000  0.04492000  0.58415000  1
  H  H119  1  0.29922000  0.05407000  0.64429000  1
  H  H120  1  0.63949000  0.79966000  0.99743000  1
  H  H121  1  0.72916000  0.91446000  0.04229000  1
  H  H122  1  0.80116000  0.85854000  0.03400000  1
  H  H123  1  0.80092000  0.63633000  0.01479000  1
  H  H124  1  0.91585000  0.73270000  0.04492000  1
  H  H125  1  0.85571000  0.79922000  0.05407000  1
  H  H126  1  0.86051000  0.20034000  0.49743000  1
  H  H127  1  0.77084000  0.08554000  0.54229000  1
  H  H128  1  0.69884000  0.14146000  0.53400000  1
  H  H129  1  0.69908000  0.36367000  0.51479000  1
  H  H130  1  0.58415000  0.26730000  0.54492000  1
  H  H131  1  0.64429000  0.20078000  0.55407000  1
  H  H132  1  0.13949000  0.70034000  0.00257000  1
  H  H133  1  0.22916000  0.58554000  0.95771000  1
  H  H134  1  0.30116000  0.64146000  0.96600000  1
  H  H135  1  0.30092000  0.86367000  0.98521000  1
  H  H136  1  0.41585000  0.76730000  0.95508000  1
  H  H137  1  0.35571000  0.70078000  0.94593000  1
  H  H138  1  0.36051000  0.29966000  0.50257000  1
  H  H139  1  0.27084000  0.41446000  0.45771000  1
  H  H140  1  0.19884000  0.35854000  0.46600000  1
  H  H141  1  0.19908000  0.13633000  0.48521000  1
  H  H142  1  0.08415000  0.23270000  0.45508000  1
  H  H143  1  0.14429000  0.29922000  0.44593000  1
  H  H144  1  0.99743000  0.63949000  0.79966000  1
  H  H145  1  0.04229000  0.72916000  0.91446000  1
  H  H146  1  0.03400000  0.80116000  0.85854000  1
  H  H147  1  0.01479000  0.80092000  0.63633000  1
  H  H148  1  0.04492000  0.91585000  0.73270000  1
  H  H149  1  0.05407000  0.85571000  0.79922000  1
  H  H150  1  0.50257000  0.36051000  0.29966000  1
  H  H151  1  0.45771000  0.27084000  0.41446000  1
  H  H152  1  0.46600000  0.19884000  0.35854000  1
  H  H153  1  0.48521000  0.19908000  0.13633000  1
  H  H154  1  0.45508000  0.08415000  0.23270000  1
  H  H155  1  0.44593000  0.14429000  0.29922000  1
  H  H156  1  0.49743000  0.86051000  0.20034000  1
  H  H157  1  0.54229000  0.77084000  0.08554000  1
  H  H158  1  0.53400000  0.69884000  0.14146000  1
  H  H159  1  0.51479000  0.69908000  0.36367000  1
  H  H160  1  0.54492000  0.58415000  0.26730000  1
  H  H161  1  0.55407000  0.64429000  0.20078000  1
  H  H162  1  0.00257000  0.13949000  0.70034000  1
  H  H163  1  0.95771000  0.22916000  0.58554000  1
  H  H164  1  0.96600000  0.30116000  0.64146000  1
  H  H165  1  0.98521000  0.30092000  0.86367000  1
  H  H166  1  0.95508000  0.41585000  0.76730000  1
  H  H167  1  0.94593000  0.35571000  0.70078000  1
  H  H168  1  0.79966000  0.99743000  0.63949000  1
  H  H169  1  0.91446000  0.04229000  0.72916000  1
  H  H170  1  0.85854000  0.03400000  0.80116000  1
  H  H171  1  0.63633000  0.01479000  0.80092000  1
  H  H172  1  0.73270000  0.04492000  0.91585000  1
  H  H173  1  0.79922000  0.05407000  0.85571000  1
  H  H174  1  0.29966000  0.50257000  0.36051000  1
  H  H175  1  0.41446000  0.45771000  0.27084000  1
  H  H176  1  0.35854000  0.46600000  0.19884000  1
  H  H177  1  0.13633000  0.48521000  0.19908000  1
  H  H178  1  0.23270000  0.45508000  0.08415000  1
  H  H179  1  0.29922000  0.44593000  0.14429000  1
  H  H180  1  0.20034000  0.49743000  0.86051000  1
  H  H181  1  0.08554000  0.54229000  0.77084000  1
  H  H182  1  0.14146000  0.53400000  0.69884000  1
  H  H183  1  0.36367000  0.51479000  0.69908000  1
  H  H184  1  0.26730000  0.54492000  0.58415000  1
  H  H185  1  0.20078000  0.55407000  0.64429000  1
  H  H186  1  0.70034000  0.00257000  0.13949000  1
  H  H187  1  0.58554000  0.95771000  0.22916000  1
  H  H188  1  0.64146000  0.96600000  0.30116000  1
  H  H189  1  0.86367000  0.98521000  0.30092000  1
  H  H190  1  0.76730000  0.95508000  0.41585000  1
  H  H191  1  0.70078000  0.94593000  0.35571000  1
  C  C192  1  0.36420000  0.10120000  0.99230000  1
  C  C193  1  0.32800000  0.18850000  0.99200000  1
  C  C194  1  0.32160000  0.13660000  0.98340000  1
  C  C195  1  0.27510000  0.11990000  0.96810000  1
  C  C196  1  0.23290000  0.15350000  0.96750000  1
  C  C197  1  0.24450000  0.20630000  0.96930000  1
  C  C198  1  0.10130000  0.36830000  0.97000000  1
  C  C199  1  0.18740000  0.33020000  0.97830000  1
  C  C200  1  0.13620000  0.32310000  0.96800000  1
  C  C201  1  0.11950000  0.27390000  0.95910000  1
  C  C202  1  0.15450000  0.23390000  0.95610000  1
  C  C203  1  0.20550000  0.24460000  0.96870000  1
  C  C204  1  0.13580000  0.89880000  0.49230000  1
  C  C205  1  0.17200000  0.81150000  0.49200000  1
  C  C206  1  0.17840000  0.86340000  0.48340000  1
  C  C207  1  0.22490000  0.88010000  0.46810000  1
  C  C208  1  0.26710000  0.84650000  0.46750000  1
  C  C209  1  0.25550000  0.79370000  0.46930000  1
  C  C210  1  0.39870000  0.63170000  0.47000000  1
  C  C211  1  0.31260000  0.66980000  0.47830000  1
  C  C212  1  0.36380000  0.67690000  0.46800000  1
  C  C213  1  0.38050000  0.72610000  0.45910000  1
  C  C214  1  0.34550000  0.76610000  0.45610000  1
  C  C215  1  0.29450000  0.75540000  0.46870000  1
  C  C216  1  0.86420000  0.39880000  0.00770000  1
  C  C217  1  0.82800000  0.31150000  0.00800000  1
  C  C218  1  0.82160000  0.36340000  0.01660000  1
  C  C219  1  0.77510000  0.38010000  0.03190000  1
  C  C220  1  0.73290000  0.34650000  0.03250000  1
  C  C221  1  0.74450000  0.29370000  0.03070000  1
  C  C222  1  0.60130000  0.13170000  0.03000000  1
  C  C223  1  0.68740000  0.16980000  0.02170000  1
  C  C224  1  0.63620000  0.17690000  0.03200000  1
  C  C225  1  0.61950000  0.22610000  0.04090000  1
  C  C226  1  0.65450000  0.26610000  0.04390000  1
  C  C227  1  0.70550000  0.25540000  0.03130000  1
  C  C228  1  0.63580000  0.60120000  0.50770000  1
  C  C229  1  0.67200000  0.68850000  0.50800000  1
  C  C230  1  0.67840000  0.63660000  0.51660000  1
  C  C231  1  0.72490000  0.61990000  0.53190000  1
  C  C232  1  0.76710000  0.65350000  0.53250000  1
  C  C233  1  0.75550000  0.70630000  0.53070000  1
  C  C234  1  0.89870000  0.86830000  0.53000000  1
  C  C235  1  0.81260000  0.83020000  0.52170000  1
  C  C236  1  0.86380000  0.82310000  0.53200000  1
  C  C237  1  0.88050000  0.77390000  0.54090000  1
  C  C238  1  0.84550000  0.73390000  0.54390000  1
  C  C239  1  0.79450000  0.74460000  0.53130000  1
  C  C240  1  0.99230000  0.36420000  0.10120000  1
  C  C241  1  0.99200000  0.32800000  0.18850000  1
  C  C242  1  0.98340000  0.32160000  0.13660000  1
  C  C243  1  0.96810000  0.27510000  0.11990000  1
  C  C244  1  0.96750000  0.23290000  0.15350000  1
  C  C245  1  0.96930000  0.24450000  0.20630000  1
  C  C246  1  0.97000000  0.10130000  0.36830000  1
  C  C247  1  0.97830000  0.18740000  0.33020000  1
  C  C248  1  0.96800000  0.13620000  0.32310000  1
  C  C249  1  0.95910000  0.11950000  0.27390000  1
  C  C250  1  0.95610000  0.15450000  0.23390000  1
  C  C251  1  0.96870000  0.20550000  0.24460000  1
  C  C252  1  0.50770000  0.63580000  0.60120000  1
  C  C253  1  0.50800000  0.67200000  0.68850000  1
  C  C254  1  0.51660000  0.67840000  0.63660000  1
  C  C255  1  0.53190000  0.72490000  0.61990000  1
  C  C256  1  0.53250000  0.76710000  0.65350000  1
  C  C257  1  0.53070000  0.75550000  0.70630000  1
  C  C258  1  0.53000000  0.89870000  0.86830000  1
  C  C259  1  0.52170000  0.81260000  0.83020000  1
  C  C260  1  0.53200000  0.86380000  0.82310000  1
  C  C261  1  0.54090000  0.88050000  0.77390000  1
  C  C262  1  0.54390000  0.84550000  0.73390000  1
  C  C263  1  0.53130000  0.79450000  0.74460000  1
  C  C264  1  0.49230000  0.13580000  0.89880000  1
  C  C265  1  0.49200000  0.17200000  0.81150000  1
  C  C266  1  0.48340000  0.17840000  0.86340000  1
  C  C267  1  0.46810000  0.22490000  0.88010000  1
  C  C268  1  0.46750000  0.26710000  0.84650000  1
  C  C269  1  0.46930000  0.25550000  0.79370000  1
  C  C270  1  0.47000000  0.39870000  0.63170000  1
  C  C271  1  0.47830000  0.31260000  0.66980000  1
  C  C272  1  0.46800000  0.36380000  0.67690000  1
  C  C273  1  0.45910000  0.38050000  0.72610000  1
  C  C274  1  0.45610000  0.34550000  0.76610000  1
  C  C275  1  0.46870000  0.29450000  0.75540000  1
  C  C276  1  0.00770000  0.86420000  0.39880000  1
  C  C277  1  0.00800000  0.82800000  0.31150000  1
  C  C278  1  0.01660000  0.82160000  0.36340000  1
  C  C279  1  0.03190000  0.77510000  0.38010000  1
  C  C280  1  0.03250000  0.73290000  0.34650000  1
  C  C281  1  0.03070000  0.74450000  0.29370000  1
  C  C282  1  0.03000000  0.60130000  0.13170000  1
  C  C283  1  0.02170000  0.68740000  0.16980000  1
  C  C284  1  0.03200000  0.63620000  0.17690000  1
  C  C285  1  0.04090000  0.61950000  0.22610000  1
  C  C286  1  0.04390000  0.65450000  0.26610000  1
  C  C287  1  0.03130000  0.70550000  0.25540000  1
  C  C288  1  0.10120000  0.99230000  0.36420000  1
  C  C289  1  0.18850000  0.99200000  0.32800000  1
  C  C290  1  0.13660000  0.98340000  0.32160000  1
  C  C291  1  0.11990000  0.96810000  0.27510000  1
  C  C292  1  0.15350000  0.96750000  0.23290000  1
  C  C293  1  0.20630000  0.96930000  0.24450000  1
  C  C294  1  0.36830000  0.97000000  0.10130000  1
  C  C295  1  0.33020000  0.97830000  0.18740000  1
  C  C296  1  0.32310000  0.96800000  0.13620000  1
  C  C297  1  0.27390000  0.95910000  0.11950000  1
  C  C298  1  0.23390000  0.95610000  0.15450000  1
  C  C299  1  0.24460000  0.96870000  0.20550000  1
  C  C300  1  0.60120000  0.50770000  0.63580000  1
  C  C301  1  0.68850000  0.50800000  0.67200000  1
  C  C302  1  0.63660000  0.51660000  0.67840000  1
  C  C303  1  0.61990000  0.53190000  0.72490000  1
  C  C304  1  0.65350000  0.53250000  0.76710000  1
  C  C305  1  0.70630000  0.53070000  0.75550000  1
  C  C306  1  0.86830000  0.53000000  0.89870000  1
  C  C307  1  0.83020000  0.52170000  0.81260000  1
  C  C308  1  0.82310000  0.53200000  0.86380000  1
  C  C309  1  0.77390000  0.54090000  0.88050000  1
  C  C310  1  0.73390000  0.54390000  0.84550000  1
  C  C311  1  0.74460000  0.53130000  0.79450000  1
  C  C312  1  0.89880000  0.49230000  0.13580000  1
  C  C313  1  0.81150000  0.49200000  0.17200000  1
  C  C314  1  0.86340000  0.48340000  0.17840000  1
  C  C315  1  0.88010000  0.46810000  0.22490000  1
  C  C316  1  0.84650000  0.46750000  0.26710000  1
  C  C317  1  0.79370000  0.46930000  0.25550000  1
  C  C318  1  0.63170000  0.47000000  0.39870000  1
  C  C319  1  0.66980000  0.47830000  0.31260000  1
  C  C320  1  0.67690000  0.46800000  0.36380000  1
  C  C321  1  0.72610000  0.45910000  0.38050000  1
  C  C322  1  0.76610000  0.45610000  0.34550000  1
  C  C323  1  0.75540000  0.46870000  0.29450000  1
  C  C324  1  0.39880000  0.00770000  0.86420000  1
  C  C325  1  0.31150000  0.00800000  0.82800000  1
  C  C326  1  0.36340000  0.01660000  0.82160000  1
  C  C327  1  0.38010000  0.03190000  0.77510000  1
  C  C328  1  0.34650000  0.03250000  0.73290000  1
  C  C329  1  0.29370000  0.03070000  0.74450000  1
  C  C330  1  0.13170000  0.03000000  0.60130000  1
  C  C331  1  0.16980000  0.02170000  0.68740000  1
  C  C332  1  0.17690000  0.03200000  0.63620000  1
  C  C333  1  0.22610000  0.04090000  0.61950000  1
  C  C334  1  0.26610000  0.04390000  0.65450000  1
  C  C335  1  0.25540000  0.03130000  0.70550000  1
  C  C336  1  0.63580000  0.89880000  0.00770000  1
  C  C337  1  0.67200000  0.81150000  0.00800000  1
  C  C338  1  0.67840000  0.86340000  0.01660000  1
  C  C339  1  0.72490000  0.88010000  0.03190000  1
  C  C340  1  0.76710000  0.84650000  0.03250000  1
  C  C341  1  0.75550000  0.79370000  0.03070000  1
  C  C342  1  0.89870000  0.63170000  0.03000000  1
  C  C343  1  0.81260000  0.66980000  0.02170000  1
  C  C344  1  0.86380000  0.67690000  0.03200000  1
  C  C345  1  0.88050000  0.72610000  0.04090000  1
  C  C346  1  0.84550000  0.76610000  0.04390000  1
  C  C347  1  0.79450000  0.75540000  0.03130000  1
  C  C348  1  0.86420000  0.10120000  0.50770000  1
  C  C349  1  0.82800000  0.18850000  0.50800000  1
  C  C350  1  0.82160000  0.13660000  0.51660000  1
  C  C351  1  0.77510000  0.11990000  0.53190000  1
  C  C352  1  0.73290000  0.15350000  0.53250000  1
  C  C353  1  0.74450000  0.20630000  0.53070000  1
  C  C354  1  0.60130000  0.36830000  0.53000000  1
  C  C355  1  0.68740000  0.33020000  0.52170000  1
  C  C356  1  0.63620000  0.32310000  0.53200000  1
  C  C357  1  0.61950000  0.27390000  0.54090000  1
  C  C358  1  0.65450000  0.23390000  0.54390000  1
  C  C359  1  0.70550000  0.24460000  0.53130000  1
  C  C360  1  0.13580000  0.60120000  0.99230000  1
  C  C361  1  0.17200000  0.68850000  0.99200000  1
  C  C362  1  0.17840000  0.63660000  0.98340000  1
  C  C363  1  0.22490000  0.61990000  0.96810000  1
  C  C364  1  0.26710000  0.65350000  0.96750000  1
  C  C365  1  0.25550000  0.70630000  0.96930000  1
  C  C366  1  0.39870000  0.86830000  0.97000000  1
  C  C367  1  0.31260000  0.83020000  0.97830000  1
  C  C368  1  0.36380000  0.82310000  0.96800000  1
  C  C369  1  0.38050000  0.77390000  0.95910000  1
  C  C370  1  0.34550000  0.73390000  0.95610000  1
  C  C371  1  0.29450000  0.74460000  0.96870000  1
  C  C372  1  0.36420000  0.39880000  0.49230000  1
  C  C373  1  0.32800000  0.31150000  0.49200000  1
  C  C374  1  0.32160000  0.36340000  0.48340000  1
  C  C375  1  0.27510000  0.38010000  0.46810000  1
  C  C376  1  0.23290000  0.34650000  0.46750000  1
  C  C377  1  0.24450000  0.29370000  0.46930000  1
  C  C378  1  0.10130000  0.13170000  0.47000000  1
  C  C379  1  0.18740000  0.16980000  0.47830000  1
  C  C380  1  0.13620000  0.17690000  0.46800000  1
  C  C381  1  0.11950000  0.22610000  0.45910000  1
  C  C382  1  0.15450000  0.26610000  0.45610000  1
  C  C383  1  0.20550000  0.25540000  0.46870000  1
  C  C384  1  0.00770000  0.63580000  0.89880000  1
  C  C385  1  0.00800000  0.67200000  0.81150000  1
  C  C386  1  0.01660000  0.67840000  0.86340000  1
  C  C387  1  0.03190000  0.72490000  0.88010000  1
  C  C388  1  0.03250000  0.76710000  0.84650000  1
  C  C389  1  0.03070000  0.75550000  0.79370000  1
  C  C390  1  0.03000000  0.89870000  0.63170000  1
  C  C391  1  0.02170000  0.81260000  0.66980000  1
  C  C392  1  0.03200000  0.86380000  0.67690000  1
  C  C393  1  0.04090000  0.88050000  0.72610000  1
  C  C394  1  0.04390000  0.84550000  0.76610000  1
  C  C395  1  0.03130000  0.79450000  0.75540000  1
  C  C396  1  0.49230000  0.36420000  0.39880000  1
  C  C397  1  0.49200000  0.32800000  0.31150000  1
  C  C398  1  0.48340000  0.32160000  0.36340000  1
  C  C399  1  0.46810000  0.27510000  0.38010000  1
  C  C400  1  0.46750000  0.23290000  0.34650000  1
  C  C401  1  0.46930000  0.24450000  0.29370000  1
  C  C402  1  0.47000000  0.10130000  0.13170000  1
  C  C403  1  0.47830000  0.18740000  0.16980000  1
  C  C404  1  0.46800000  0.13620000  0.17690000  1
  C  C405  1  0.45910000  0.11950000  0.22610000  1
  C  C406  1  0.45610000  0.15450000  0.26610000  1
  C  C407  1  0.46870000  0.20550000  0.25540000  1
  C  C408  1  0.50770000  0.86420000  0.10120000  1
  C  C409  1  0.50800000  0.82800000  0.18850000  1
  C  C410  1  0.51660000  0.82160000  0.13660000  1
  C  C411  1  0.53190000  0.77510000  0.11990000  1
  C  C412  1  0.53250000  0.73290000  0.15350000  1
  C  C413  1  0.53070000  0.74450000  0.20630000  1
  C  C414  1  0.53000000  0.60130000  0.36830000  1
  C  C415  1  0.52170000  0.68740000  0.33020000  1
  C  C416  1  0.53200000  0.63620000  0.32310000  1
  C  C417  1  0.54090000  0.61950000  0.27390000  1
  C  C418  1  0.54390000  0.65450000  0.23390000  1
  C  C419  1  0.53130000  0.70550000  0.24460000  1
  C  C420  1  0.99230000  0.13580000  0.60120000  1
  C  C421  1  0.99200000  0.17200000  0.68850000  1
  C  C422  1  0.98340000  0.17840000  0.63660000  1
  C  C423  1  0.96810000  0.22490000  0.61990000  1
  C  C424  1  0.96750000  0.26710000  0.65350000  1
  C  C425  1  0.96930000  0.25550000  0.70630000  1
  C  C426  1  0.97000000  0.39870000  0.86830000  1
  C  C427  1  0.97830000  0.31260000  0.83020000  1
  C  C428  1  0.96800000  0.36380000  0.82310000  1
  C  C429  1  0.95910000  0.38050000  0.77390000  1
  C  C430  1  0.95610000  0.34550000  0.73390000  1
  C  C431  1  0.96870000  0.29450000  0.74460000  1
  C  C432  1  0.89880000  0.00770000  0.63580000  1
  C  C433  1  0.81150000  0.00800000  0.67200000  1
  C  C434  1  0.86340000  0.01660000  0.67840000  1
  C  C435  1  0.88010000  0.03190000  0.72490000  1
  C  C436  1  0.84650000  0.03250000  0.76710000  1
  C  C437  1  0.79370000  0.03070000  0.75550000  1
  C  C438  1  0.63170000  0.03000000  0.89870000  1
  C  C439  1  0.66980000  0.02170000  0.81260000  1
  C  C440  1  0.67690000  0.03200000  0.86380000  1
  C  C441  1  0.72610000  0.04090000  0.88050000  1
  C  C442  1  0.76610000  0.04390000  0.84550000  1
  C  C443  1  0.75540000  0.03130000  0.79450000  1
  C  C444  1  0.39880000  0.49230000  0.36420000  1
  C  C445  1  0.31150000  0.49200000  0.32800000  1
  C  C446  1  0.36340000  0.48340000  0.32160000  1
  C  C447  1  0.38010000  0.46810000  0.27510000  1
  C  C448  1  0.34650000  0.46750000  0.23290000  1
  C  C449  1  0.29370000  0.46930000  0.24450000  1
  C  C450  1  0.13170000  0.47000000  0.10130000  1
  C  C451  1  0.16980000  0.47830000  0.18740000  1
  C  C452  1  0.17690000  0.46800000  0.13620000  1
  C  C453  1  0.22610000  0.45910000  0.11950000  1
  C  C454  1  0.26610000  0.45610000  0.15450000  1
  C  C455  1  0.25540000  0.46870000  0.20550000  1
  C  C456  1  0.10120000  0.50770000  0.86420000  1
  C  C457  1  0.18850000  0.50800000  0.82800000  1
  C  C458  1  0.13660000  0.51660000  0.82160000  1
  C  C459  1  0.11990000  0.53190000  0.77510000  1
  C  C460  1  0.15350000  0.53250000  0.73290000  1
  C  C461  1  0.20630000  0.53070000  0.74450000  1
  C  C462  1  0.36830000  0.53000000  0.60130000  1
  C  C463  1  0.33020000  0.52170000  0.68740000  1
  C  C464  1  0.32310000  0.53200000  0.63620000  1
  C  C465  1  0.27390000  0.54090000  0.61950000  1
  C  C466  1  0.23390000  0.54390000  0.65450000  1
  C  C467  1  0.24460000  0.53130000  0.70550000  1
  C  C468  1  0.60120000  0.99230000  0.13580000  1
  C  C469  1  0.68850000  0.99200000  0.17200000  1
  C  C470  1  0.63660000  0.98340000  0.17840000  1
  C  C471  1  0.61990000  0.96810000  0.22490000  1
  C  C472  1  0.65350000  0.96750000  0.26710000  1
  C  C473  1  0.70630000  0.96930000  0.25550000  1
  C  C474  1  0.86830000  0.97000000  0.39870000  1
  C  C475  1  0.83020000  0.97830000  0.31260000  1
  C  C476  1  0.82310000  0.96800000  0.36380000  1
  C  C477  1  0.77390000  0.95910000  0.38050000  1
  C  C478  1  0.73390000  0.95610000  0.34550000  1
  C  C479  1  0.74460000  0.96870000  0.29450000  1
  Br  Br480  1  0.30040000  0.38782000  0.02610000  1
  Br  Br481  1  0.33910000  0.30420000  0.92290000  1
  Br  Br482  1  0.19960000  0.61218000  0.52610000  1
  Br  Br483  1  0.16090000  0.69580000  0.42290000  1
  Br  Br484  1  0.80040000  0.11218000  0.97390000  1
  Br  Br485  1  0.83910000  0.19580000  0.07710000  1
  Br  Br486  1  0.69960000  0.88782000  0.47390000  1
  Br  Br487  1  0.66090000  0.80420000  0.57710000  1
  Br  Br488  1  0.02610000  0.30040000  0.38782000  1
  Br  Br489  1  0.92290000  0.33910000  0.30420000  1
  Br  Br490  1  0.47390000  0.69960000  0.88782000  1
  Br  Br491  1  0.57710000  0.66090000  0.80420000  1
  Br  Br492  1  0.52610000  0.19960000  0.61218000  1
  Br  Br493  1  0.42290000  0.16090000  0.69580000  1
  Br  Br494  1  0.97390000  0.80040000  0.11218000  1
  Br  Br495  1  0.07710000  0.83910000  0.19580000  1
  Br  Br496  1  0.38782000  0.02610000  0.30040000  1
  Br  Br497  1  0.30420000  0.92290000  0.33910000  1
  Br  Br498  1  0.88782000  0.47390000  0.69960000  1
  Br  Br499  1  0.80420000  0.57710000  0.66090000  1
  Br  Br500  1  0.61218000  0.52610000  0.19960000  1
  Br  Br501  1  0.69580000  0.42290000  0.16090000  1
  Br  Br502  1  0.11218000  0.97390000  0.80040000  1
  Br  Br503  1  0.19580000  0.07710000  0.83910000  1
  Br  Br504  1  0.69960000  0.61218000  0.97390000  1
  Br  Br505  1  0.66090000  0.69580000  0.07710000  1
  Br  Br506  1  0.80040000  0.38782000  0.47390000  1
  Br  Br507  1  0.83910000  0.30420000  0.57710000  1
  Br  Br508  1  0.19960000  0.88782000  0.02610000  1
  Br  Br509  1  0.16090000  0.80420000  0.92290000  1
  Br  Br510  1  0.30040000  0.11218000  0.52610000  1
  Br  Br511  1  0.33910000  0.19580000  0.42290000  1
  Br  Br512  1  0.97390000  0.69960000  0.61218000  1
  Br  Br513  1  0.07710000  0.66090000  0.69580000  1
  Br  Br514  1  0.52610000  0.30040000  0.11218000  1
  Br  Br515  1  0.42290000  0.33910000  0.19580000  1
  Br  Br516  1  0.47390000  0.80040000  0.38782000  1
  Br  Br517  1  0.57710000  0.83910000  0.30420000  1
  Br  Br518  1  0.02610000  0.19960000  0.88782000  1
  Br  Br519  1  0.92290000  0.16090000  0.80420000  1
  Br  Br520  1  0.61218000  0.97390000  0.69960000  1
  Br  Br521  1  0.69580000  0.07710000  0.66090000  1
  Br  Br522  1  0.11218000  0.52610000  0.30040000  1
  Br  Br523  1  0.19580000  0.42290000  0.33910000  1
  Br  Br524  1  0.38782000  0.47390000  0.80040000  1
  Br  Br525  1  0.30420000  0.57710000  0.83910000  1
  Br  Br526  1  0.88782000  0.02610000  0.19960000  1
  Br  Br527  1  0.80420000  0.92290000  0.16090000  1
  N  N528  1  0.29080000  0.22210000  0.98600000  1
  N  N529  1  0.22160000  0.29190000  0.97890000  1
  N  N530  1  0.20920000  0.77790000  0.48600000  1
  N  N531  1  0.27840000  0.70810000  0.47890000  1
  N  N532  1  0.79080000  0.27790000  0.01400000  1
  N  N533  1  0.72160000  0.20810000  0.02110000  1
  N  N534  1  0.70920000  0.72210000  0.51400000  1
  N  N535  1  0.77840000  0.79190000  0.52110000  1
  N  N536  1  0.98600000  0.29080000  0.22210000  1
  N  N537  1  0.97890000  0.22160000  0.29190000  1
  N  N538  1  0.51400000  0.70920000  0.72210000  1
  N  N539  1  0.52110000  0.77840000  0.79190000  1
  N  N540  1  0.48600000  0.20920000  0.77790000  1
  N  N541  1  0.47890000  0.27840000  0.70810000  1
  N  N542  1  0.01400000  0.79080000  0.27790000  1
  N  N543  1  0.02110000  0.72160000  0.20810000  1
  N  N544  1  0.22210000  0.98600000  0.29080000  1
  N  N545  1  0.29190000  0.97890000  0.22160000  1
  N  N546  1  0.72210000  0.51400000  0.70920000  1
  N  N547  1  0.79190000  0.52110000  0.77840000  1
  N  N548  1  0.77790000  0.48600000  0.20920000  1
  N  N549  1  0.70810000  0.47890000  0.27840000  1
  N  N550  1  0.27790000  0.01400000  0.79080000  1
  N  N551  1  0.20810000  0.02110000  0.72160000  1
  N  N552  1  0.70920000  0.77790000  0.01400000  1
  N  N553  1  0.77840000  0.70810000  0.02110000  1
  N  N554  1  0.79080000  0.22210000  0.51400000  1
  N  N555  1  0.72160000  0.29190000  0.52110000  1
  N  N556  1  0.20920000  0.72210000  0.98600000  1
  N  N557  1  0.27840000  0.79190000  0.97890000  1
  N  N558  1  0.29080000  0.27790000  0.48600000  1
  N  N559  1  0.22160000  0.20810000  0.47890000  1
  N  N560  1  0.01400000  0.70920000  0.77790000  1
  N  N561  1  0.02110000  0.77840000  0.70810000  1
  N  N562  1  0.48600000  0.29080000  0.27790000  1
  N  N563  1  0.47890000  0.22160000  0.20810000  1
  N  N564  1  0.51400000  0.79080000  0.22210000  1
  N  N565  1  0.52110000  0.72160000  0.29190000  1
  N  N566  1  0.98600000  0.20920000  0.72210000  1
  N  N567  1  0.97890000  0.27840000  0.79190000  1
  N  N568  1  0.77790000  0.01400000  0.70920000  1
  N  N569  1  0.70810000  0.02110000  0.77840000  1
  N  N570  1  0.27790000  0.48600000  0.29080000  1
  N  N571  1  0.20810000  0.47890000  0.22160000  1
  N  N572  1  0.22210000  0.51400000  0.79080000  1
  N  N573  1  0.29190000  0.52110000  0.72160000  1
  N  N574  1  0.72210000  0.98600000  0.20920000  1
  N  N575  1  0.79190000  0.97890000  0.27840000  1
  O  O576  1  0.40680000  0.12320000  0.00510000  1
  O  O577  1  0.35560000  0.05460000  0.98880000  1
  O  O578  1  0.12260000  0.41140000  0.97150000  1
  O  O579  1  0.05380000  0.35750000  0.97240000  1
  O  O580  1  0.44950000  0.02840000  0.04040000  1
  O  O581  1  0.43290000  0.03810000  0.05150000  1
  O  O582  1  0.44870000  0.05130000  0.94870000  1
  O  O583  1  0.46050000  0.03950000  0.96050000  1
  O  O584  1  0.09320000  0.87680000  0.50510000  1
  O  O585  1  0.14440000  0.94540000  0.48880000  1
  O  O586  1  0.37740000  0.58860000  0.47150000  1
  O  O587  1  0.44620000  0.64250000  0.47240000  1
  O  O588  1  0.05050000  0.97160000  0.54040000  1
  O  O589  1  0.06710000  0.96190000  0.55150000  1
  O  O590  1  0.05130000  0.94870000  0.44870000  1
  O  O591  1  0.03950000  0.96050000  0.46050000  1
  O  O592  1  0.90680000  0.37680000  0.99490000  1
  O  O593  1  0.85560000  0.44540000  0.01120000  1
  O  O594  1  0.62260000  0.08860000  0.02850000  1
  O  O595  1  0.55380000  0.14250000  0.02760000  1
  O  O596  1  0.94950000  0.47160000  0.95960000  1
  O  O597  1  0.93290000  0.46190000  0.94850000  1
  O  O598  1  0.94870000  0.44870000  0.05130000  1
  O  O599  1  0.96050000  0.46050000  0.03950000  1
  O  O600  1  0.59320000  0.62320000  0.49490000  1
  O  O601  1  0.64440000  0.55460000  0.51120000  1
  O  O602  1  0.87740000  0.91140000  0.52850000  1
  O  O603  1  0.94620000  0.85750000  0.52760000  1
  O  O604  1  0.55050000  0.52840000  0.45960000  1
  O  O605  1  0.56710000  0.53810000  0.44850000  1
  O  O606  1  0.55130000  0.55130000  0.55130000  1
  O  O607  1  0.53950000  0.53950000  0.53950000  1
  O  O608  1  0.00510000  0.40680000  0.12320000  1
  O  O609  1  0.98880000  0.35560000  0.05460000  1
  O  O610  1  0.97150000  0.12260000  0.41140000  1
  O  O611  1  0.97240000  0.05380000  0.35750000  1
  O  O612  1  0.04040000  0.44950000  0.02840000  1
  O  O613  1  0.05150000  0.43290000  0.03810000  1
  O  O614  1  0.49490000  0.59320000  0.62320000  1
  O  O615  1  0.51120000  0.64440000  0.55460000  1
  O  O616  1  0.52850000  0.87740000  0.91140000  1
  O  O617  1  0.52760000  0.94620000  0.85750000  1
  O  O618  1  0.45960000  0.55050000  0.52840000  1
  O  O619  1  0.44850000  0.56710000  0.53810000  1
  O  O620  1  0.50510000  0.09320000  0.87680000  1
  O  O621  1  0.48880000  0.14440000  0.94540000  1
  O  O622  1  0.47150000  0.37740000  0.58860000  1
  O  O623  1  0.47240000  0.44620000  0.64250000  1
  O  O624  1  0.54040000  0.05050000  0.97160000  1
  O  O625  1  0.55150000  0.06710000  0.96190000  1
  O  O626  1  0.99490000  0.90680000  0.37680000  1
  O  O627  1  0.01120000  0.85560000  0.44540000  1
  O  O628  1  0.02850000  0.62260000  0.08860000  1
  O  O629  1  0.02760000  0.55380000  0.14250000  1
  O  O630  1  0.95960000  0.94950000  0.47160000  1
  O  O631  1  0.94850000  0.93290000  0.46190000  1
  O  O632  1  0.12320000  0.00510000  0.40680000  1
  O  O633  1  0.05460000  0.98880000  0.35560000  1
  O  O634  1  0.41140000  0.97150000  0.12260000  1
  O  O635  1  0.35750000  0.97240000  0.05380000  1
  O  O636  1  0.02840000  0.04040000  0.44950000  1
  O  O637  1  0.03810000  0.05150000  0.43290000  1
  O  O638  1  0.62320000  0.49490000  0.59320000  1
  O  O639  1  0.55460000  0.51120000  0.64440000  1
  O  O640  1  0.91140000  0.52850000  0.87740000  1
  O  O641  1  0.85750000  0.52760000  0.94620000  1
  O  O642  1  0.52840000  0.45960000  0.55050000  1
  O  O643  1  0.53810000  0.44850000  0.56710000  1
  O  O644  1  0.87680000  0.50510000  0.09320000  1
  O  O645  1  0.94540000  0.48880000  0.14440000  1
  O  O646  1  0.58860000  0.47150000  0.37740000  1
  O  O647  1  0.64250000  0.47240000  0.44620000  1
  O  O648  1  0.97160000  0.54040000  0.05050000  1
  O  O649  1  0.96190000  0.55150000  0.06710000  1
  O  O650  1  0.37680000  0.99490000  0.90680000  1
  O  O651  1  0.44540000  0.01120000  0.85560000  1
  O  O652  1  0.08860000  0.02850000  0.62260000  1
  O  O653  1  0.14250000  0.02760000  0.55380000  1
  O  O654  1  0.47160000  0.95960000  0.94950000  1
  O  O655  1  0.46190000  0.94850000  0.93290000  1
  O  O656  1  0.59320000  0.87680000  0.99490000  1
  O  O657  1  0.64440000  0.94540000  0.01120000  1
  O  O658  1  0.87740000  0.58860000  0.02850000  1
  O  O659  1  0.94620000  0.64250000  0.02760000  1
  O  O660  1  0.55050000  0.97160000  0.95960000  1
  O  O661  1  0.56710000  0.96190000  0.94850000  1
  O  O662  1  0.55130000  0.94870000  0.05130000  1
  O  O663  1  0.53950000  0.96050000  0.03950000  1
  O  O664  1  0.90680000  0.12320000  0.49490000  1
  O  O665  1  0.85560000  0.05460000  0.51120000  1
  O  O666  1  0.62260000  0.41140000  0.52850000  1
  O  O667  1  0.55380000  0.35750000  0.52760000  1
  O  O668  1  0.94950000  0.02840000  0.45960000  1
  O  O669  1  0.93290000  0.03810000  0.44850000  1
  O  O670  1  0.94870000  0.05130000  0.55130000  1
  O  O671  1  0.96050000  0.03950000  0.53950000  1
  O  O672  1  0.09320000  0.62320000  0.00510000  1
  O  O673  1  0.14440000  0.55460000  0.98880000  1
  O  O674  1  0.37740000  0.91140000  0.97150000  1
  O  O675  1  0.44620000  0.85750000  0.97240000  1
  O  O676  1  0.05050000  0.52840000  0.04040000  1
  O  O677  1  0.06710000  0.53810000  0.05150000  1
  O  O678  1  0.05130000  0.55130000  0.94870000  1
  O  O679  1  0.03950000  0.53950000  0.96050000  1
  O  O680  1  0.40680000  0.37680000  0.50510000  1
  O  O681  1  0.35560000  0.44540000  0.48880000  1
  O  O682  1  0.12260000  0.08860000  0.47150000  1
  O  O683  1  0.05380000  0.14250000  0.47240000  1
  O  O684  1  0.44950000  0.47160000  0.54040000  1
  O  O685  1  0.43290000  0.46190000  0.55150000  1
  O  O686  1  0.44870000  0.44870000  0.44870000  1
  O  O687  1  0.46050000  0.46050000  0.46050000  1
  O  O688  1  0.99490000  0.59320000  0.87680000  1
  O  O689  1  0.01120000  0.64440000  0.94540000  1
  O  O690  1  0.02850000  0.87740000  0.58860000  1
  O  O691  1  0.02760000  0.94620000  0.64250000  1
  O  O692  1  0.95960000  0.55050000  0.97160000  1
  O  O693  1  0.94850000  0.56710000  0.96190000  1
  O  O694  1  0.50510000  0.40680000  0.37680000  1
  O  O695  1  0.48880000  0.35560000  0.44540000  1
  O  O696  1  0.47150000  0.12260000  0.08860000  1
  O  O697  1  0.47240000  0.05380000  0.14250000  1
  O  O698  1  0.54040000  0.44950000  0.47160000  1
  O  O699  1  0.55150000  0.43290000  0.46190000  1
  O  O700  1  0.49490000  0.90680000  0.12320000  1
  O  O701  1  0.51120000  0.85560000  0.05460000  1
  O  O702  1  0.52850000  0.62260000  0.41140000  1
  O  O703  1  0.52760000  0.55380000  0.35750000  1
  O  O704  1  0.45960000  0.94950000  0.02840000  1
  O  O705  1  0.44850000  0.93290000  0.03810000  1
  O  O706  1  0.00510000  0.09320000  0.62320000  1
  O  O707  1  0.98880000  0.14440000  0.55460000  1
  O  O708  1  0.97150000  0.37740000  0.91140000  1
  O  O709  1  0.97240000  0.44620000  0.85750000  1
  O  O710  1  0.04040000  0.05050000  0.52840000  1
  O  O711  1  0.05150000  0.06710000  0.53810000  1
  O  O712  1  0.87680000  0.99490000  0.59320000  1
  O  O713  1  0.94540000  0.01120000  0.64440000  1
  O  O714  1  0.58860000  0.02850000  0.87740000  1
  O  O715  1  0.64250000  0.02760000  0.94620000  1
  O  O716  1  0.97160000  0.95960000  0.55050000  1
  O  O717  1  0.96190000  0.94850000  0.56710000  1
  O  O718  1  0.37680000  0.50510000  0.40680000  1
  O  O719  1  0.44540000  0.48880000  0.35560000  1
  O  O720  1  0.08860000  0.47150000  0.12260000  1
  O  O721  1  0.14250000  0.47240000  0.05380000  1
  O  O722  1  0.47160000  0.54040000  0.44950000  1
  O  O723  1  0.46190000  0.55150000  0.43290000  1
  O  O724  1  0.12320000  0.49490000  0.90680000  1
  O  O725  1  0.05460000  0.51120000  0.85560000  1
  O  O726  1  0.41140000  0.52850000  0.62260000  1
  O  O727  1  0.35750000  0.52760000  0.55380000  1
  O  O728  1  0.02840000  0.45960000  0.94950000  1
  O  O729  1  0.03810000  0.44850000  0.93290000  1
  O  O730  1  0.62320000  0.00510000  0.09320000  1
  O  O731  1  0.55460000  0.98880000  0.14440000  1
  O  O732  1  0.91140000  0.97150000  0.37740000  1
  O  O733  1  0.85750000  0.97240000  0.44620000  1
  O  O734  1  0.52840000  0.04040000  0.05050000  1
  O  O735  1  0.53810000  0.05150000  0.06710000  1
