# generated using pymatgen
data_Zr9Cu4H72C82I4(NO2)24
_symmetry_space_group_name_H-M   'P 1'
_cell_length_a   22.74960000
_cell_length_b   22.74960000
_cell_length_c   22.74960000
_cell_angle_alpha   90.00000000
_cell_angle_beta   90.00000000
_cell_angle_gamma   90.00000000
_symmetry_Int_Tables_number   1
_chemical_formula_structural   Zr9Cu4H72C82I4(NO2)24
_chemical_formula_sum   'Zr18 Cu8 H144 C164 I8 N48 O96'
_cell_volume   11773.92581092
_cell_formula_units_Z   2
loop_
 _symmetry_equiv_pos_site_id
 _symmetry_equiv_pos_as_xyz
  1  'x, y, z'
loop_
 _atom_site_type_symbol
 _atom_site_label
 _atom_site_symmetry_multiplicity
 _atom_site_fract_x
 _atom_site_fract_y
 _atom_site_fract_z
 _atom_site_occupancy
  Zr  Zr0  1  0.57713000  0.00000000  0.57713000  1
  Zr  Zr1  1  0.42287000  0.00000000  0.57713000  1
  Zr  Zr2  1  0.42287000  0.00000000  0.42287000  1
  Zr  Zr3  1  0.57713000  0.00000000  0.42287000  1
  Zr  Zr4  1  0.57713000  0.57713000  0.00000000  1
  Zr  Zr5  1  0.57713000  0.42287000  0.00000000  1
  Zr  Zr6  1  0.42287000  0.42287000  0.00000000  1
  Zr  Zr7  1  0.42287000  0.57713000  0.00000000  1
  Zr  Zr8  1  0.00000000  0.57713000  0.57713000  1
  Zr  Zr9  1  0.00000000  0.57713000  0.42287000  1
  Zr  Zr10  1  0.00000000  0.42287000  0.42287000  1
  Zr  Zr11  1  0.00000000  0.42287000  0.57713000  1
  Zr  Zr12  1  0.50000000  0.89092000  0.50000000  1
  Zr  Zr13  1  0.50000000  0.10908000  0.50000000  1
  Zr  Zr14  1  0.50000000  0.50000000  0.89092000  1
  Zr  Zr15  1  0.50000000  0.50000000  0.10908000  1
  Zr  Zr16  1  0.89092000  0.50000000  0.50000000  1
  Zr  Zr17  1  0.10908000  0.50000000  0.50000000  1
  Cu  Cu18  1  0.74870000  0.74870000  0.74870000  1
  Cu  Cu19  1  0.25130000  0.25130000  0.74870000  1
  Cu  Cu20  1  0.25130000  0.74870000  0.25130000  1
  Cu  Cu21  1  0.74870000  0.25130000  0.25130000  1
  Cu  Cu22  1  0.74870000  0.74870000  0.25130000  1
  Cu  Cu23  1  0.25130000  0.25130000  0.25130000  1
  Cu  Cu24  1  0.74870000  0.25130000  0.74870000  1
  Cu  Cu25  1  0.25130000  0.74870000  0.74870000  1
  H  H26  1  0.71571000  0.90960000  0.65665000  1
  H  H27  1  0.72669000  0.87329000  0.72916000  1
  H  H28  1  0.65607000  0.91119000  0.71265000  1
  H  H29  1  0.68942000  0.88337000  0.25674000  1
  H  H30  1  0.74151000  0.88808000  0.31968000  1
  H  H31  1  0.66753000  0.92263000  0.32512000  1
  H  H32  1  0.58629000  0.67690000  0.58639000  1
  H  H33  1  0.58994000  0.73795000  0.53202000  1
  H  H34  1  0.53203000  0.73806000  0.58984000  1
  H  H35  1  0.59868000  0.68058000  0.42905000  1
  H  H36  1  0.53454000  0.72153000  0.39895000  1
  H  H37  1  0.57503000  0.75081000  0.46375000  1
  H  H38  1  0.91040000  0.71419000  0.65633000  1
  H  H39  1  0.91040000  0.65633000  0.71419000  1
  H  H40  1  0.87327000  0.72794000  0.72794000  1
  H  H41  1  0.87659000  0.70743000  0.25917000  1
  H  H42  1  0.91947000  0.65814000  0.30845000  1
  H  H43  1  0.89803000  0.73290000  0.33392000  1
  H  H44  1  0.73801000  0.53202000  0.58989000  1
  H  H45  1  0.73801000  0.58989000  0.53202000  1
  H  H46  1  0.67690000  0.58634000  0.58634000  1
  H  H47  1  0.75292000  0.53806000  0.42853000  1
  H  H48  1  0.68236000  0.56737000  0.39923000  1
  H  H49  1  0.71764000  0.60282000  0.46399000  1
  H  H50  1  0.55255000  0.24163000  0.44756000  1
  H  H51  1  0.54890000  0.30267000  0.39319000  1
  H  H52  1  0.60681000  0.30278000  0.45101000  1
  H  H53  1  0.88565000  0.31522000  0.25735000  1
  H  H54  1  0.88565000  0.25735000  0.31522000  1
  H  H55  1  0.92278000  0.32896000  0.32896000  1
  H  H56  1  0.69727000  0.39319000  0.45105000  1
  H  H57  1  0.69727000  0.45105000  0.39319000  1
  H  H58  1  0.75837000  0.44751000  0.44751000  1
  H  H59  1  0.91947000  0.30845000  0.65814000  1
  H  H60  1  0.87659000  0.25917000  0.70743000  1
  H  H61  1  0.89803000  0.33392000  0.73290000  1
  H  H62  1  0.68236000  0.39923000  0.56737000  1
  H  H63  1  0.75292000  0.42853000  0.53806000  1
  H  H64  1  0.71764000  0.46399000  0.60282000  1
  H  H65  1  0.54016000  0.24530000  0.56788000  1
  H  H66  1  0.60429000  0.28625000  0.53778000  1
  H  H67  1  0.56380000  0.31553000  0.60259000  1
  H  H68  1  0.68326000  0.11355000  0.25768000  1
  H  H69  1  0.67229000  0.07723000  0.33018000  1
  H  H70  1  0.74291000  0.11514000  0.31367000  1
  H  H71  1  0.70956000  0.08731000  0.65572000  1
  H  H72  1  0.65747000  0.09203000  0.71865000  1
  H  H73  1  0.73145000  0.12658000  0.72409000  1
  H  H74  1  0.34253000  0.09203000  0.71865000  1
  H  H75  1  0.29044000  0.08731000  0.65572000  1
  H  H76  1  0.26855000  0.12658000  0.72409000  1
  H  H77  1  0.39571000  0.28625000  0.53778000  1
  H  H78  1  0.45984000  0.24530000  0.56788000  1
  H  H79  1  0.43620000  0.31553000  0.60259000  1
  H  H80  1  0.12341000  0.25917000  0.70743000  1
  H  H81  1  0.08053000  0.30845000  0.65814000  1
  H  H82  1  0.10197000  0.33392000  0.73290000  1
  H  H83  1  0.24708000  0.42853000  0.53806000  1
  H  H84  1  0.31764000  0.39923000  0.56737000  1
  H  H85  1  0.28236000  0.46399000  0.60282000  1
  H  H86  1  0.11435000  0.25735000  0.31522000  1
  H  H87  1  0.11435000  0.31522000  0.25735000  1
  H  H88  1  0.07722000  0.32896000  0.32896000  1
  H  H89  1  0.30273000  0.45105000  0.39319000  1
  H  H90  1  0.30273000  0.39319000  0.45105000  1
  H  H91  1  0.24163000  0.44751000  0.44751000  1
  H  H92  1  0.32771000  0.07723000  0.33018000  1
  H  H93  1  0.31674000  0.11355000  0.25768000  1
  H  H94  1  0.25709000  0.11514000  0.31367000  1
  H  H95  1  0.45110000  0.30267000  0.39319000  1
  H  H96  1  0.44745000  0.24163000  0.44756000  1
  H  H97  1  0.39319000  0.30278000  0.45101000  1
  H  H98  1  0.25849000  0.88808000  0.31968000  1
  H  H99  1  0.31058000  0.88337000  0.25674000  1
  H  H100  1  0.33247000  0.92263000  0.32512000  1
  H  H101  1  0.46546000  0.72153000  0.39895000  1
  H  H102  1  0.40132000  0.68058000  0.42905000  1
  H  H103  1  0.42497000  0.75081000  0.46375000  1
  H  H104  1  0.08053000  0.65814000  0.30845000  1
  H  H105  1  0.12341000  0.70743000  0.25917000  1
  H  H106  1  0.10197000  0.73290000  0.33392000  1
  H  H107  1  0.31764000  0.56737000  0.39923000  1
  H  H108  1  0.24708000  0.53806000  0.42853000  1
  H  H109  1  0.28236000  0.60282000  0.46399000  1
  H  H110  1  0.08960000  0.65633000  0.71419000  1
  H  H111  1  0.08960000  0.71419000  0.65633000  1
  H  H112  1  0.12673000  0.72794000  0.72794000  1
  H  H113  1  0.26199000  0.58989000  0.53202000  1
  H  H114  1  0.26199000  0.53202000  0.58989000  1
  H  H115  1  0.32310000  0.58634000  0.58634000  1
  H  H116  1  0.27331000  0.87329000  0.72916000  1
  H  H117  1  0.28429000  0.90960000  0.65665000  1
  H  H118  1  0.34393000  0.91119000  0.71265000  1
  H  H119  1  0.41006000  0.73795000  0.53202000  1
  H  H120  1  0.41371000  0.67690000  0.58639000  1
  H  H121  1  0.46797000  0.73806000  0.58984000  1
  H  H122  1  0.72669000  0.72916000  0.87329000  1
  H  H123  1  0.71571000  0.65665000  0.90960000  1
  H  H124  1  0.65607000  0.71265000  0.91119000  1
  H  H125  1  0.58994000  0.53202000  0.73795000  1
  H  H126  1  0.58629000  0.58639000  0.67690000  1
  H  H127  1  0.53203000  0.58984000  0.73806000  1
  H  H128  1  0.31058000  0.25674000  0.88337000  1
  H  H129  1  0.25849000  0.31968000  0.88808000  1
  H  H130  1  0.33247000  0.32512000  0.92263000  1
  H  H131  1  0.40132000  0.42905000  0.68058000  1
  H  H132  1  0.46546000  0.39895000  0.72153000  1
  H  H133  1  0.42497000  0.46375000  0.75081000  1
  H  H134  1  0.28429000  0.65665000  0.90960000  1
  H  H135  1  0.27331000  0.72916000  0.87329000  1
  H  H136  1  0.34393000  0.71265000  0.91119000  1
  H  H137  1  0.41371000  0.58639000  0.67690000  1
  H  H138  1  0.41006000  0.53202000  0.73795000  1
  H  H139  1  0.46797000  0.58984000  0.73806000  1
  H  H140  1  0.74151000  0.31968000  0.88808000  1
  H  H141  1  0.68942000  0.25674000  0.88337000  1
  H  H142  1  0.66753000  0.32512000  0.92263000  1
  H  H143  1  0.53454000  0.39895000  0.72153000  1
  H  H144  1  0.59868000  0.42905000  0.68058000  1
  H  H145  1  0.57503000  0.46375000  0.75081000  1
  H  H146  1  0.67229000  0.33018000  0.07723000  1
  H  H147  1  0.68326000  0.25768000  0.11355000  1
  H  H148  1  0.74291000  0.31367000  0.11514000  1
  H  H149  1  0.54890000  0.39319000  0.30267000  1
  H  H150  1  0.55255000  0.44756000  0.24163000  1
  H  H151  1  0.60681000  0.45101000  0.30278000  1
  H  H152  1  0.29044000  0.65572000  0.08731000  1
  H  H153  1  0.34253000  0.71865000  0.09203000  1
  H  H154  1  0.26855000  0.72409000  0.12658000  1
  H  H155  1  0.45984000  0.56788000  0.24530000  1
  H  H156  1  0.39571000  0.53778000  0.28625000  1
  H  H157  1  0.43620000  0.60259000  0.31553000  1
  H  H158  1  0.65747000  0.71865000  0.09203000  1
  H  H159  1  0.70956000  0.65572000  0.08731000  1
  H  H160  1  0.73145000  0.72409000  0.12658000  1
  H  H161  1  0.60429000  0.53778000  0.28625000  1
  H  H162  1  0.54016000  0.56788000  0.24530000  1
  H  H163  1  0.56380000  0.60259000  0.31553000  1
  H  H164  1  0.31674000  0.25768000  0.11355000  1
  H  H165  1  0.32771000  0.33018000  0.07723000  1
  H  H166  1  0.25709000  0.31367000  0.11514000  1
  H  H167  1  0.44745000  0.44756000  0.24163000  1
  H  H168  1  0.45110000  0.39319000  0.30267000  1
  H  H169  1  0.39319000  0.45101000  0.30278000  1
  C  C170  1  0.66940000  0.66940000  0.66940000  1
  C  C171  1  0.33060000  0.33060000  0.66940000  1
  C  C172  1  0.33060000  0.66940000  0.33060000  1
  C  C173  1  0.66940000  0.33060000  0.33060000  1
  C  C174  1  0.66940000  0.66940000  0.33060000  1
  C  C175  1  0.33060000  0.33060000  0.33060000  1
  C  C176  1  0.66940000  0.33060000  0.66940000  1
  C  C177  1  0.33060000  0.66940000  0.66940000  1
  C  C178  1  0.66920000  0.82840000  0.66920000  1
  C  C179  1  0.62640000  0.81940000  0.62640000  1
  C  C180  1  0.69330000  0.88380000  0.69330000  1
  C  C181  1  0.61920000  0.75900000  0.61920000  1
  C  C182  1  0.59300000  0.86760000  0.59300000  1
  C  C183  1  0.57960000  0.72610000  0.57960000  1
  C  C184  1  0.33080000  0.17160000  0.66920000  1
  C  C185  1  0.37360000  0.18060000  0.62640000  1
  C  C186  1  0.30670000  0.11620000  0.69330000  1
  C  C187  1  0.38080000  0.24100000  0.61920000  1
  C  C188  1  0.40700000  0.13240000  0.59300000  1
  C  C189  1  0.42040000  0.27390000  0.57960000  1
  C  C190  1  0.33080000  0.82840000  0.33080000  1
  C  C191  1  0.37360000  0.81940000  0.37360000  1
  C  C192  1  0.30670000  0.88380000  0.30670000  1
  C  C193  1  0.38080000  0.75900000  0.38080000  1
  C  C194  1  0.40700000  0.86760000  0.40700000  1
  C  C195  1  0.42040000  0.72610000  0.42040000  1
  C  C196  1  0.66920000  0.17160000  0.33080000  1
  C  C197  1  0.62640000  0.18060000  0.37360000  1
  C  C198  1  0.69330000  0.11620000  0.30670000  1
  C  C199  1  0.61920000  0.24100000  0.38080000  1
  C  C200  1  0.59300000  0.13240000  0.40700000  1
  C  C201  1  0.57960000  0.27390000  0.42040000  1
  C  C202  1  0.66920000  0.66920000  0.82840000  1
  C  C203  1  0.62640000  0.62640000  0.81940000  1
  C  C204  1  0.69330000  0.69330000  0.88380000  1
  C  C205  1  0.61920000  0.61920000  0.75900000  1
  C  C206  1  0.59300000  0.59300000  0.86760000  1
  C  C207  1  0.57960000  0.57960000  0.72610000  1
  C  C208  1  0.66920000  0.33080000  0.17160000  1
  C  C209  1  0.62640000  0.37360000  0.18060000  1
  C  C210  1  0.69330000  0.30670000  0.11620000  1
  C  C211  1  0.61920000  0.38080000  0.24100000  1
  C  C212  1  0.59300000  0.40700000  0.13240000  1
  C  C213  1  0.57960000  0.42040000  0.27390000  1
  C  C214  1  0.33080000  0.33080000  0.82840000  1
  C  C215  1  0.37360000  0.37360000  0.81940000  1
  C  C216  1  0.30670000  0.30670000  0.88380000  1
  C  C217  1  0.38080000  0.38080000  0.75900000  1
  C  C218  1  0.40700000  0.40700000  0.86760000  1
  C  C219  1  0.42040000  0.42040000  0.72610000  1
  C  C220  1  0.33080000  0.66920000  0.17160000  1
  C  C221  1  0.37360000  0.62640000  0.18060000  1
  C  C222  1  0.30670000  0.69330000  0.11620000  1
  C  C223  1  0.38080000  0.61920000  0.24100000  1
  C  C224  1  0.40700000  0.59300000  0.13240000  1
  C  C225  1  0.42040000  0.57960000  0.27390000  1
  C  C226  1  0.82840000  0.66920000  0.66920000  1
  C  C227  1  0.81940000  0.62640000  0.62640000  1
  C  C228  1  0.88380000  0.69330000  0.69330000  1
  C  C229  1  0.75900000  0.61920000  0.61920000  1
  C  C230  1  0.86760000  0.59300000  0.59300000  1
  C  C231  1  0.72610000  0.57960000  0.57960000  1
  C  C232  1  0.17160000  0.66920000  0.33080000  1
  C  C233  1  0.18060000  0.62640000  0.37360000  1
  C  C234  1  0.11620000  0.69330000  0.30670000  1
  C  C235  1  0.24100000  0.61920000  0.38080000  1
  C  C236  1  0.13240000  0.59300000  0.40700000  1
  C  C237  1  0.27390000  0.57960000  0.42040000  1
  C  C238  1  0.82840000  0.33080000  0.33080000  1
  C  C239  1  0.81940000  0.37360000  0.37360000  1
  C  C240  1  0.88380000  0.30670000  0.30670000  1
  C  C241  1  0.75900000  0.38080000  0.38080000  1
  C  C242  1  0.86760000  0.40700000  0.40700000  1
  C  C243  1  0.72610000  0.42040000  0.42040000  1
  C  C244  1  0.17160000  0.33080000  0.66920000  1
  C  C245  1  0.18060000  0.37360000  0.62640000  1
  C  C246  1  0.11620000  0.30670000  0.69330000  1
  C  C247  1  0.24100000  0.38080000  0.61920000  1
  C  C248  1  0.13240000  0.40700000  0.59300000  1
  C  C249  1  0.27390000  0.42040000  0.57960000  1
  C  C250  1  0.82840000  0.66920000  0.33080000  1
  C  C251  1  0.81940000  0.62640000  0.37360000  1
  C  C252  1  0.88380000  0.69330000  0.30670000  1
  C  C253  1  0.75900000  0.61920000  0.38080000  1
  C  C254  1  0.86760000  0.59300000  0.40700000  1
  C  C255  1  0.72610000  0.57960000  0.42040000  1
  C  C256  1  0.17160000  0.33080000  0.33080000  1
  C  C257  1  0.18060000  0.37360000  0.37360000  1
  C  C258  1  0.11620000  0.30670000  0.30670000  1
  C  C259  1  0.24100000  0.38080000  0.38080000  1
  C  C260  1  0.13240000  0.40700000  0.40700000  1
  C  C261  1  0.27390000  0.42040000  0.42040000  1
  C  C262  1  0.82840000  0.33080000  0.66920000  1
  C  C263  1  0.81940000  0.37360000  0.62640000  1
  C  C264  1  0.88380000  0.30670000  0.69330000  1
  C  C265  1  0.75900000  0.38080000  0.61920000  1
  C  C266  1  0.86760000  0.40700000  0.59300000  1
  C  C267  1  0.72610000  0.42040000  0.57960000  1
  C  C268  1  0.17160000  0.66920000  0.66920000  1
  C  C269  1  0.18060000  0.62640000  0.62640000  1
  C  C270  1  0.11620000  0.69330000  0.69330000  1
  C  C271  1  0.24100000  0.61920000  0.61920000  1
  C  C272  1  0.13240000  0.59300000  0.59300000  1
  C  C273  1  0.27390000  0.57960000  0.57960000  1
  C  C274  1  0.66920000  0.66920000  0.17160000  1
  C  C275  1  0.62640000  0.62640000  0.18060000  1
  C  C276  1  0.69330000  0.69330000  0.11620000  1
  C  C277  1  0.61920000  0.61920000  0.24100000  1
  C  C278  1  0.59300000  0.59300000  0.13240000  1
  C  C279  1  0.57960000  0.57960000  0.27390000  1
  C  C280  1  0.33080000  0.66920000  0.82840000  1
  C  C281  1  0.37360000  0.62640000  0.81940000  1
  C  C282  1  0.30670000  0.69330000  0.88380000  1
  C  C283  1  0.38080000  0.61920000  0.75900000  1
  C  C284  1  0.40700000  0.59300000  0.86760000  1
  C  C285  1  0.42040000  0.57960000  0.72610000  1
  C  C286  1  0.33080000  0.33080000  0.17160000  1
  C  C287  1  0.37360000  0.37360000  0.18060000  1
  C  C288  1  0.30670000  0.30670000  0.11620000  1
  C  C289  1  0.38080000  0.38080000  0.24100000  1
  C  C290  1  0.40700000  0.40700000  0.13240000  1
  C  C291  1  0.42040000  0.42040000  0.27390000  1
  C  C292  1  0.66920000  0.33080000  0.82840000  1
  C  C293  1  0.62640000  0.37360000  0.81940000  1
  C  C294  1  0.69330000  0.30670000  0.88380000  1
  C  C295  1  0.61920000  0.38080000  0.75900000  1
  C  C296  1  0.59300000  0.40700000  0.86760000  1
  C  C297  1  0.57960000  0.42040000  0.72610000  1
  C  C298  1  0.66920000  0.82840000  0.33080000  1
  C  C299  1  0.62640000  0.81940000  0.37360000  1
  C  C300  1  0.69330000  0.88380000  0.30670000  1
  C  C301  1  0.61920000  0.75900000  0.38080000  1
  C  C302  1  0.59300000  0.86760000  0.40700000  1
  C  C303  1  0.57960000  0.72610000  0.42040000  1
  C  C304  1  0.66920000  0.17160000  0.66920000  1
  C  C305  1  0.62640000  0.18060000  0.62640000  1
  C  C306  1  0.69330000  0.11620000  0.69330000  1
  C  C307  1  0.61920000  0.24100000  0.61920000  1
  C  C308  1  0.59300000  0.13240000  0.59300000  1
  C  C309  1  0.57960000  0.27390000  0.57960000  1
  C  C310  1  0.33080000  0.82840000  0.66920000  1
  C  C311  1  0.37360000  0.81940000  0.62640000  1
  C  C312  1  0.30670000  0.88380000  0.69330000  1
  C  C313  1  0.38080000  0.75900000  0.61920000  1
  C  C314  1  0.40700000  0.86760000  0.59300000  1
  C  C315  1  0.42040000  0.72610000  0.57960000  1
  C  C316  1  0.33080000  0.17160000  0.33080000  1
  C  C317  1  0.37360000  0.18060000  0.37360000  1
  C  C318  1  0.30670000  0.11620000  0.30670000  1
  C  C319  1  0.38080000  0.24100000  0.38080000  1
  C  C320  1  0.40700000  0.13240000  0.40700000  1
  C  C321  1  0.42040000  0.27390000  0.42040000  1
  C  C322  1  0.69380000  0.00000000  0.50000000  1
  C  C323  1  0.30620000  0.00000000  0.50000000  1
  C  C324  1  0.50000000  0.69380000  0.00000000  1
  C  C325  1  0.50000000  0.30620000  0.00000000  1
  C  C326  1  0.00000000  0.50000000  0.69380000  1
  C  C327  1  0.00000000  0.50000000  0.30620000  1
  C  C328  1  0.00000000  0.69380000  0.50000000  1
  C  C329  1  0.00000000  0.30620000  0.50000000  1
  C  C330  1  0.69380000  0.50000000  0.00000000  1
  C  C331  1  0.30620000  0.50000000  0.00000000  1
  C  C332  1  0.50000000  0.00000000  0.30620000  1
  C  C333  1  0.50000000  0.00000000  0.69380000  1
  I  I334  1  0.80960000  0.80960000  0.80960000  1
  I  I335  1  0.19040000  0.19040000  0.80960000  1
  I  I336  1  0.19040000  0.80960000  0.19040000  1
  I  I337  1  0.80960000  0.19040000  0.19040000  1
  I  I338  1  0.80960000  0.80960000  0.19040000  1
  I  I339  1  0.19040000  0.19040000  0.19040000  1
  I  I340  1  0.80960000  0.19040000  0.80960000  1
  I  I341  1  0.19040000  0.80960000  0.80960000  1
  N  N342  1  0.68860000  0.77350000  0.68860000  1
  N  N343  1  0.65760000  0.73060000  0.65760000  1
  N  N344  1  0.31140000  0.22650000  0.68860000  1
  N  N345  1  0.34240000  0.26940000  0.65760000  1
  N  N346  1  0.31140000  0.77350000  0.31140000  1
  N  N347  1  0.34240000  0.73060000  0.34240000  1
  N  N348  1  0.68860000  0.22650000  0.31140000  1
  N  N349  1  0.65760000  0.26940000  0.34240000  1
  N  N350  1  0.68860000  0.68860000  0.77350000  1
  N  N351  1  0.65760000  0.65760000  0.73060000  1
  N  N352  1  0.68860000  0.31140000  0.22650000  1
  N  N353  1  0.65760000  0.34240000  0.26940000  1
  N  N354  1  0.31140000  0.31140000  0.77350000  1
  N  N355  1  0.34240000  0.34240000  0.73060000  1
  N  N356  1  0.31140000  0.68860000  0.22650000  1
  N  N357  1  0.34240000  0.65760000  0.26940000  1
  N  N358  1  0.77350000  0.68860000  0.68860000  1
  N  N359  1  0.73060000  0.65760000  0.65760000  1
  N  N360  1  0.22650000  0.68860000  0.31140000  1
  N  N361  1  0.26940000  0.65760000  0.34240000  1
  N  N362  1  0.77350000  0.31140000  0.31140000  1
  N  N363  1  0.73060000  0.34240000  0.34240000  1
  N  N364  1  0.22650000  0.31140000  0.68860000  1
  N  N365  1  0.26940000  0.34240000  0.65760000  1
  N  N366  1  0.77350000  0.68860000  0.31140000  1
  N  N367  1  0.73060000  0.65760000  0.34240000  1
  N  N368  1  0.22650000  0.31140000  0.31140000  1
  N  N369  1  0.26940000  0.34240000  0.34240000  1
  N  N370  1  0.77350000  0.31140000  0.68860000  1
  N  N371  1  0.73060000  0.34240000  0.65760000  1
  N  N372  1  0.22650000  0.68860000  0.68860000  1
  N  N373  1  0.26940000  0.65760000  0.65760000  1
  N  N374  1  0.68860000  0.68860000  0.22650000  1
  N  N375  1  0.65760000  0.65760000  0.26940000  1
  N  N376  1  0.31140000  0.68860000  0.77350000  1
  N  N377  1  0.34240000  0.65760000  0.73060000  1
  N  N378  1  0.31140000  0.31140000  0.22650000  1
  N  N379  1  0.34240000  0.34240000  0.26940000  1
  N  N380  1  0.68860000  0.31140000  0.77350000  1
  N  N381  1  0.65760000  0.34240000  0.73060000  1
  N  N382  1  0.68860000  0.77350000  0.31140000  1
  N  N383  1  0.65760000  0.73060000  0.34240000  1
  N  N384  1  0.68860000  0.22650000  0.68860000  1
  N  N385  1  0.65760000  0.26940000  0.65760000  1
  N  N386  1  0.31140000  0.77350000  0.68860000  1
  N  N387  1  0.34240000  0.73060000  0.65760000  1
  N  N388  1  0.31140000  0.22650000  0.31140000  1
  N  N389  1  0.34240000  0.26940000  0.34240000  1
  O  O390  1  0.60560000  0.92290000  0.60560000  1
  O  O391  1  0.55360000  0.85080000  0.55360000  1
  O  O392  1  0.39440000  0.07710000  0.60560000  1
  O  O393  1  0.44640000  0.14920000  0.55360000  1
  O  O394  1  0.39440000  0.92290000  0.39440000  1
  O  O395  1  0.44640000  0.85080000  0.44640000  1
  O  O396  1  0.60560000  0.07710000  0.39440000  1
  O  O397  1  0.55360000  0.14920000  0.44640000  1
  O  O398  1  0.60560000  0.60560000  0.92290000  1
  O  O399  1  0.55360000  0.55360000  0.85080000  1
  O  O400  1  0.60560000  0.39440000  0.07710000  1
  O  O401  1  0.55360000  0.44640000  0.14920000  1
  O  O402  1  0.39440000  0.39440000  0.92290000  1
  O  O403  1  0.44640000  0.44640000  0.85080000  1
  O  O404  1  0.39440000  0.60560000  0.07710000  1
  O  O405  1  0.44640000  0.55360000  0.14920000  1
  O  O406  1  0.92290000  0.60560000  0.60560000  1
  O  O407  1  0.85080000  0.55360000  0.55360000  1
  O  O408  1  0.07710000  0.60560000  0.39440000  1
  O  O409  1  0.14920000  0.55360000  0.44640000  1
  O  O410  1  0.92290000  0.39440000  0.39440000  1
  O  O411  1  0.85080000  0.44640000  0.44640000  1
  O  O412  1  0.07710000  0.39440000  0.60560000  1
  O  O413  1  0.14920000  0.44640000  0.55360000  1
  O  O414  1  0.92290000  0.60560000  0.39440000  1
  O  O415  1  0.85080000  0.55360000  0.44640000  1
  O  O416  1  0.07710000  0.39440000  0.39440000  1
  O  O417  1  0.14920000  0.44640000  0.44640000  1
  O  O418  1  0.92290000  0.39440000  0.60560000  1
  O  O419  1  0.85080000  0.44640000  0.55360000  1
  O  O420  1  0.07710000  0.60560000  0.60560000  1
  O  O421  1  0.14920000  0.55360000  0.55360000  1
  O  O422  1  0.60560000  0.60560000  0.07710000  1
  O  O423  1  0.55360000  0.55360000  0.14920000  1
  O  O424  1  0.39440000  0.60560000  0.92290000  1
  O  O425  1  0.44640000  0.55360000  0.85080000  1
  O  O426  1  0.39440000  0.39440000  0.07710000  1
  O  O427  1  0.44640000  0.44640000  0.14920000  1
  O  O428  1  0.60560000  0.39440000  0.92290000  1
  O  O429  1  0.55360000  0.44640000  0.85080000  1
  O  O430  1  0.60560000  0.92290000  0.39440000  1
  O  O431  1  0.55360000  0.85080000  0.44640000  1
  O  O432  1  0.60560000  0.07710000  0.60560000  1
  O  O433  1  0.55360000  0.14920000  0.55360000  1
  O  O434  1  0.39440000  0.92290000  0.60560000  1
  O  O435  1  0.44640000  0.85080000  0.55360000  1
  O  O436  1  0.39440000  0.07710000  0.39440000  1
  O  O437  1  0.44640000  0.14920000  0.44640000  1
  O  O438  1  0.57840000  0.95400000  0.50000000  1
  O  O439  1  0.42160000  0.04600000  0.50000000  1
  O  O440  1  0.42160000  0.95400000  0.50000000  1
  O  O441  1  0.57840000  0.04600000  0.50000000  1
  O  O442  1  0.50000000  0.57840000  0.95400000  1
  O  O443  1  0.50000000  0.42160000  0.04600000  1
  O  O444  1  0.50000000  0.42160000  0.95400000  1
  O  O445  1  0.50000000  0.57840000  0.04600000  1
  O  O446  1  0.95400000  0.50000000  0.57840000  1
  O  O447  1  0.04600000  0.50000000  0.42160000  1
  O  O448  1  0.95400000  0.50000000  0.42160000  1
  O  O449  1  0.04600000  0.50000000  0.57840000  1
  O  O450  1  0.95400000  0.57840000  0.50000000  1
  O  O451  1  0.04600000  0.42160000  0.50000000  1
  O  O452  1  0.95400000  0.42160000  0.50000000  1
  O  O453  1  0.04600000  0.57840000  0.50000000  1
  O  O454  1  0.57840000  0.50000000  0.04600000  1
  O  O455  1  0.42160000  0.50000000  0.95400000  1
  O  O456  1  0.42160000  0.50000000  0.04600000  1
  O  O457  1  0.57840000  0.50000000  0.95400000  1
  O  O458  1  0.50000000  0.95400000  0.42160000  1
  O  O459  1  0.50000000  0.04600000  0.57840000  1
  O  O460  1  0.50000000  0.95400000  0.57840000  1
  O  O461  1  0.50000000  0.04600000  0.42160000  1
  O  O462  1  0.66666667  0.00000000  0.54690000  1
  O  O463  1  0.33333333  0.00000000  0.54690000  1
  O  O464  1  0.33333333  0.00000000  0.45310000  1
  O  O465  1  0.66666667  0.00000000  0.45310000  1
  O  O466  1  0.54690000  0.66666667  0.00000000  1
  O  O467  1  0.54690000  0.33333333  0.00000000  1
  O  O468  1  0.45310000  0.33333333  0.00000000  1
  O  O469  1  0.45310000  0.66666667  0.00000000  1
  O  O470  1  0.00000000  0.54690000  0.66666667  1
  O  O471  1  0.00000000  0.54690000  0.33333333  1
  O  O472  1  0.00000000  0.45310000  0.33333333  1
  O  O473  1  0.00000000  0.45310000  0.66666667  1
  O  O474  1  0.00000000  0.66666667  0.45310000  1
  O  O475  1  0.00000000  0.33333333  0.45310000  1
  O  O476  1  0.00000000  0.33333333  0.54690000  1
  O  O477  1  0.00000000  0.66666667  0.54690000  1
  O  O478  1  0.66666667  0.54690000  0.00000000  1
  O  O479  1  0.33333333  0.54690000  0.00000000  1
  O  O480  1  0.33333333  0.45310000  0.00000000  1
  O  O481  1  0.66666667  0.45310000  0.00000000  1
  O  O482  1  0.54690000  0.00000000  0.33333333  1
  O  O483  1  0.54690000  0.00000000  0.66666667  1
  O  O484  1  0.45310000  0.00000000  0.66666667  1
  O  O485  1  0.45310000  0.00000000  0.33333333  1
