# generated using pymatgen
data_Zr6Zn3H120C216(N3O8)4
_symmetry_space_group_name_H-M   'P 1'
_cell_length_a   25.40840000
_cell_length_b   25.40840000
_cell_length_c   25.40840000
_cell_angle_alpha   90.00000000
_cell_angle_beta   90.00000000
_cell_angle_gamma   90.00000000
_symmetry_Int_Tables_number   1
_chemical_formula_structural   Zr6Zn3H120C216(N3O8)4
_chemical_formula_sum   'Zr6 Zn3 H120 C216 N12 O32'
_cell_volume   16403.32740926
_cell_formula_units_Z   1
loop_
 _symmetry_equiv_pos_site_id
 _symmetry_equiv_pos_as_xyz
  1  'x, y, z'
loop_
 _atom_site_type_symbol
 _atom_site_label
 _atom_site_symmetry_multiplicity
 _atom_site_fract_x
 _atom_site_fract_y
 _atom_site_fract_z
 _atom_site_occupancy
  Zr  Zr0  1  0.00000000  0.90239000  0.00000000  1
  Zr  Zr1  1  0.00000000  0.09761000  0.00000000  1
  Zr  Zr2  1  0.00000000  0.00000000  0.90239000  1
  Zr  Zr3  1  0.00000000  0.00000000  0.09761000  1
  Zr  Zr4  1  0.90239000  0.00000000  0.00000000  1
  Zr  Zr5  1  0.09761000  0.00000000  0.00000000  1
  Zn  Zn6  1  0.50000000  0.50000000  0.00000000  1
  Zn  Zn7  1  0.00000000  0.50000000  0.50000000  1
  Zn  Zn8  1  0.50000000  0.00000000  0.50000000  1
  H  H9  1  0.61480000  0.67490000  0.93100000  1
  H  H10  1  0.67940000  0.74100000  0.93490000  1
  H  H11  1  0.38520000  0.67490000  0.06900000  1
  H  H12  1  0.32060000  0.74100000  0.06510000  1
  H  H13  1  0.93100000  0.61480000  0.67490000  1
  H  H14  1  0.93490000  0.67940000  0.74100000  1
  H  H15  1  0.06900000  0.61480000  0.32510000  1
  H  H16  1  0.06510000  0.67940000  0.25900000  1
  H  H17  1  0.32510000  0.06900000  0.61480000  1
  H  H18  1  0.25900000  0.06510000  0.67940000  1
  H  H19  1  0.67490000  0.61480000  0.06900000  1
  H  H20  1  0.74100000  0.67940000  0.06510000  1
  H  H21  1  0.32510000  0.61480000  0.93100000  1
  H  H22  1  0.25900000  0.67940000  0.93490000  1
  H  H23  1  0.38520000  0.93100000  0.67490000  1
  H  H24  1  0.32060000  0.93490000  0.74100000  1
  H  H25  1  0.93100000  0.67490000  0.38520000  1
  H  H26  1  0.93490000  0.74100000  0.32060000  1
  H  H27  1  0.06900000  0.67490000  0.61480000  1
  H  H28  1  0.06510000  0.74100000  0.67940000  1
  H  H29  1  0.38520000  0.32510000  0.06900000  1
  H  H30  1  0.32060000  0.25900000  0.06510000  1
  H  H31  1  0.61480000  0.32510000  0.93100000  1
  H  H32  1  0.67940000  0.25900000  0.93490000  1
  H  H33  1  0.06900000  0.38520000  0.32510000  1
  H  H34  1  0.06510000  0.32060000  0.25900000  1
  H  H35  1  0.93100000  0.38520000  0.67490000  1
  H  H36  1  0.93490000  0.32060000  0.74100000  1
  H  H37  1  0.32510000  0.06900000  0.38520000  1
  H  H38  1  0.25900000  0.06510000  0.32060000  1
  H  H39  1  0.67490000  0.06900000  0.61480000  1
  H  H40  1  0.74100000  0.06510000  0.67940000  1
  H  H41  1  0.67490000  0.93100000  0.38520000  1
  H  H42  1  0.74100000  0.93490000  0.32060000  1
  H  H43  1  0.32510000  0.38520000  0.93100000  1
  H  H44  1  0.25900000  0.32060000  0.93490000  1
  H  H45  1  0.67490000  0.38520000  0.06900000  1
  H  H46  1  0.74100000  0.32060000  0.06510000  1
  H  H47  1  0.61480000  0.06900000  0.32510000  1
  H  H48  1  0.67940000  0.06510000  0.25900000  1
  H  H49  1  0.61480000  0.93100000  0.67490000  1
  H  H50  1  0.67940000  0.93490000  0.74100000  1
  H  H51  1  0.38520000  0.93100000  0.32510000  1
  H  H52  1  0.32060000  0.93490000  0.25900000  1
  H  H53  1  0.06900000  0.32510000  0.61480000  1
  H  H54  1  0.06510000  0.25900000  0.67940000  1
  H  H55  1  0.93100000  0.32510000  0.38520000  1
  H  H56  1  0.93490000  0.25900000  0.32060000  1
  H  H57  1  0.88190000  0.77120000  0.00000000  1
  H  H58  1  0.81670000  0.70890000  0.00000000  1
  H  H59  1  0.69580000  0.54810000  0.00000000  1
  H  H60  1  0.11810000  0.22880000  0.00000000  1
  H  H61  1  0.18330000  0.29110000  0.00000000  1
  H  H62  1  0.30420000  0.45190000  0.00000000  1
  H  H63  1  0.11810000  0.77120000  0.00000000  1
  H  H64  1  0.18330000  0.70890000  0.00000000  1
  H  H65  1  0.30420000  0.54810000  0.00000000  1
  H  H66  1  0.88190000  0.22880000  0.00000000  1
  H  H67  1  0.81670000  0.29110000  0.00000000  1
  H  H68  1  0.69580000  0.45190000  0.00000000  1
  H  H69  1  0.00000000  0.88190000  0.77120000  1
  H  H70  1  0.00000000  0.81670000  0.70890000  1
  H  H71  1  0.00000000  0.69580000  0.54810000  1
  H  H72  1  0.00000000  0.11810000  0.22880000  1
  H  H73  1  0.00000000  0.18330000  0.29110000  1
  H  H74  1  0.00000000  0.30420000  0.45190000  1
  H  H75  1  0.00000000  0.11810000  0.77120000  1
  H  H76  1  0.00000000  0.18330000  0.70890000  1
  H  H77  1  0.00000000  0.30420000  0.54810000  1
  H  H78  1  0.00000000  0.88190000  0.22880000  1
  H  H79  1  0.00000000  0.81670000  0.29110000  1
  H  H80  1  0.00000000  0.69580000  0.45190000  1
  H  H81  1  0.77120000  0.00000000  0.88190000  1
  H  H82  1  0.70890000  0.00000000  0.81670000  1
  H  H83  1  0.54810000  0.00000000  0.69580000  1
  H  H84  1  0.22880000  0.00000000  0.11810000  1
  H  H85  1  0.29110000  0.00000000  0.18330000  1
  H  H86  1  0.45190000  0.00000000  0.30420000  1
  H  H87  1  0.77120000  0.00000000  0.11810000  1
  H  H88  1  0.70890000  0.00000000  0.18330000  1
  H  H89  1  0.54810000  0.00000000  0.30420000  1
  H  H90  1  0.22880000  0.00000000  0.88190000  1
  H  H91  1  0.29110000  0.00000000  0.81670000  1
  H  H92  1  0.45190000  0.00000000  0.69580000  1
  H  H93  1  0.77120000  0.88190000  0.00000000  1
  H  H94  1  0.70890000  0.81670000  0.00000000  1
  H  H95  1  0.54810000  0.69580000  0.00000000  1
  H  H96  1  0.22880000  0.11810000  0.00000000  1
  H  H97  1  0.29110000  0.18330000  0.00000000  1
  H  H98  1  0.45190000  0.30420000  0.00000000  1
  H  H99  1  0.77120000  0.11810000  0.00000000  1
  H  H100  1  0.70890000  0.18330000  0.00000000  1
  H  H101  1  0.54810000  0.30420000  0.00000000  1
  H  H102  1  0.22880000  0.88190000  0.00000000  1
  H  H103  1  0.29110000  0.81670000  0.00000000  1
  H  H104  1  0.45190000  0.69580000  0.00000000  1
  H  H105  1  0.88190000  0.00000000  0.22880000  1
  H  H106  1  0.81670000  0.00000000  0.29110000  1
  H  H107  1  0.69580000  0.00000000  0.45190000  1
  H  H108  1  0.11810000  0.00000000  0.77120000  1
  H  H109  1  0.18330000  0.00000000  0.70890000  1
  H  H110  1  0.30420000  0.00000000  0.54810000  1
  H  H111  1  0.11810000  0.00000000  0.22880000  1
  H  H112  1  0.18330000  0.00000000  0.29110000  1
  H  H113  1  0.30420000  0.00000000  0.45190000  1
  H  H114  1  0.88190000  0.00000000  0.77120000  1
  H  H115  1  0.81670000  0.00000000  0.70890000  1
  H  H116  1  0.69580000  0.00000000  0.54810000  1
  H  H117  1  0.00000000  0.77120000  0.11810000  1
  H  H118  1  0.00000000  0.70890000  0.18330000  1
  H  H119  1  0.00000000  0.54810000  0.30420000  1
  H  H120  1  0.00000000  0.22880000  0.88190000  1
  H  H121  1  0.00000000  0.29110000  0.81670000  1
  H  H122  1  0.00000000  0.45190000  0.69580000  1
  H  H123  1  0.00000000  0.77120000  0.88190000  1
  H  H124  1  0.00000000  0.70890000  0.81670000  1
  H  H125  1  0.00000000  0.54810000  0.69580000  1
  H  H126  1  0.00000000  0.22880000  0.11810000  1
  H  H127  1  0.00000000  0.29110000  0.18330000  1
  H  H128  1  0.00000000  0.45190000  0.30420000  1
  C  C129  1  0.63970000  0.67510000  0.95950000  1
  C  C130  1  0.67870000  0.71400000  0.96140000  1
  C  C131  1  0.36030000  0.67510000  0.04050000  1
  C  C132  1  0.32130000  0.71400000  0.03860000  1
  C  C133  1  0.95950000  0.63970000  0.67510000  1
  C  C134  1  0.96140000  0.67870000  0.71400000  1
  C  C135  1  0.04050000  0.63970000  0.32490000  1
  C  C136  1  0.03860000  0.67870000  0.28600000  1
  C  C137  1  0.32490000  0.04050000  0.63970000  1
  C  C138  1  0.28600000  0.03860000  0.67870000  1
  C  C139  1  0.67510000  0.63970000  0.04050000  1
  C  C140  1  0.71400000  0.67870000  0.03860000  1
  C  C141  1  0.32490000  0.63970000  0.95950000  1
  C  C142  1  0.28600000  0.67870000  0.96140000  1
  C  C143  1  0.36030000  0.95950000  0.67510000  1
  C  C144  1  0.32130000  0.96140000  0.71400000  1
  C  C145  1  0.95950000  0.67510000  0.36030000  1
  C  C146  1  0.96140000  0.71400000  0.32130000  1
  C  C147  1  0.04050000  0.67510000  0.63970000  1
  C  C148  1  0.03860000  0.71400000  0.67870000  1
  C  C149  1  0.36030000  0.32490000  0.04050000  1
  C  C150  1  0.32130000  0.28600000  0.03860000  1
  C  C151  1  0.63970000  0.32490000  0.95950000  1
  C  C152  1  0.67870000  0.28600000  0.96140000  1
  C  C153  1  0.04050000  0.36030000  0.32490000  1
  C  C154  1  0.03860000  0.32130000  0.28600000  1
  C  C155  1  0.95950000  0.36030000  0.67510000  1
  C  C156  1  0.96140000  0.32130000  0.71400000  1
  C  C157  1  0.32490000  0.04050000  0.36030000  1
  C  C158  1  0.28600000  0.03860000  0.32130000  1
  C  C159  1  0.67510000  0.04050000  0.63970000  1
  C  C160  1  0.71400000  0.03860000  0.67870000  1
  C  C161  1  0.67510000  0.95950000  0.36030000  1
  C  C162  1  0.71400000  0.96140000  0.32130000  1
  C  C163  1  0.32490000  0.36030000  0.95950000  1
  C  C164  1  0.28600000  0.32130000  0.96140000  1
  C  C165  1  0.67510000  0.36030000  0.04050000  1
  C  C166  1  0.71400000  0.32130000  0.03860000  1
  C  C167  1  0.63970000  0.04050000  0.32490000  1
  C  C168  1  0.67870000  0.03860000  0.28600000  1
  C  C169  1  0.63970000  0.95950000  0.67510000  1
  C  C170  1  0.67870000  0.96140000  0.71400000  1
  C  C171  1  0.36030000  0.95950000  0.32490000  1
  C  C172  1  0.32130000  0.96140000  0.28600000  1
  C  C173  1  0.04050000  0.32490000  0.63970000  1
  C  C174  1  0.03860000  0.28600000  0.67870000  1
  C  C175  1  0.95950000  0.32490000  0.36030000  1
  C  C176  1  0.96140000  0.28600000  0.32130000  1
  C  C177  1  0.84680000  0.78160000  0.00000000  1
  C  C178  1  0.80730000  0.74420000  0.00000000  1
  C  C179  1  0.61210000  0.54320000  0.00000000  1
  C  C180  1  0.66640000  0.52640000  0.00000000  1
  C  C181  1  0.15320000  0.21840000  0.00000000  1
  C  C182  1  0.19270000  0.25580000  0.00000000  1
  C  C183  1  0.38790000  0.45680000  0.00000000  1
  C  C184  1  0.33360000  0.47360000  0.00000000  1
  C  C185  1  0.15320000  0.78160000  0.00000000  1
  C  C186  1  0.19270000  0.74420000  0.00000000  1
  C  C187  1  0.38790000  0.54320000  0.00000000  1
  C  C188  1  0.33360000  0.52640000  0.00000000  1
  C  C189  1  0.84680000  0.21840000  0.00000000  1
  C  C190  1  0.80730000  0.25580000  0.00000000  1
  C  C191  1  0.61210000  0.45680000  0.00000000  1
  C  C192  1  0.66640000  0.47360000  0.00000000  1
  C  C193  1  0.00000000  0.84680000  0.78160000  1
  C  C194  1  0.00000000  0.80730000  0.74420000  1
  C  C195  1  0.00000000  0.61210000  0.54320000  1
  C  C196  1  0.00000000  0.66640000  0.52640000  1
  C  C197  1  0.00000000  0.15320000  0.21840000  1
  C  C198  1  0.00000000  0.19270000  0.25580000  1
  C  C199  1  0.00000000  0.38790000  0.45680000  1
  C  C200  1  0.00000000  0.33360000  0.47360000  1
  C  C201  1  0.00000000  0.15320000  0.78160000  1
  C  C202  1  0.00000000  0.19270000  0.74420000  1
  C  C203  1  0.00000000  0.38790000  0.54320000  1
  C  C204  1  0.00000000  0.33360000  0.52640000  1
  C  C205  1  0.00000000  0.84680000  0.21840000  1
  C  C206  1  0.00000000  0.80730000  0.25580000  1
  C  C207  1  0.00000000  0.61210000  0.45680000  1
  C  C208  1  0.00000000  0.66640000  0.47360000  1
  C  C209  1  0.78160000  0.00000000  0.84680000  1
  C  C210  1  0.74420000  0.00000000  0.80730000  1
  C  C211  1  0.54320000  0.00000000  0.61210000  1
  C  C212  1  0.52640000  0.00000000  0.66640000  1
  C  C213  1  0.21840000  0.00000000  0.15320000  1
  C  C214  1  0.25580000  0.00000000  0.19270000  1
  C  C215  1  0.45680000  0.00000000  0.38790000  1
  C  C216  1  0.47360000  0.00000000  0.33360000  1
  C  C217  1  0.78160000  0.00000000  0.15320000  1
  C  C218  1  0.74420000  0.00000000  0.19270000  1
  C  C219  1  0.54320000  0.00000000  0.38790000  1
  C  C220  1  0.52640000  0.00000000  0.33360000  1
  C  C221  1  0.21840000  0.00000000  0.84680000  1
  C  C222  1  0.25580000  0.00000000  0.80730000  1
  C  C223  1  0.45680000  0.00000000  0.61210000  1
  C  C224  1  0.47360000  0.00000000  0.66640000  1
  C  C225  1  0.78160000  0.84680000  0.00000000  1
  C  C226  1  0.74420000  0.80730000  0.00000000  1
  C  C227  1  0.54320000  0.61210000  0.00000000  1
  C  C228  1  0.52640000  0.66640000  0.00000000  1
  C  C229  1  0.21840000  0.15320000  0.00000000  1
  C  C230  1  0.25580000  0.19270000  0.00000000  1
  C  C231  1  0.45680000  0.38790000  0.00000000  1
  C  C232  1  0.47360000  0.33360000  0.00000000  1
  C  C233  1  0.78160000  0.15320000  0.00000000  1
  C  C234  1  0.74420000  0.19270000  0.00000000  1
  C  C235  1  0.54320000  0.38790000  0.00000000  1
  C  C236  1  0.52640000  0.33360000  0.00000000  1
  C  C237  1  0.21840000  0.84680000  0.00000000  1
  C  C238  1  0.25580000  0.80730000  0.00000000  1
  C  C239  1  0.45680000  0.61210000  0.00000000  1
  C  C240  1  0.47360000  0.66640000  0.00000000  1
  C  C241  1  0.84680000  0.00000000  0.21840000  1
  C  C242  1  0.80730000  0.00000000  0.25580000  1
  C  C243  1  0.61210000  0.00000000  0.45680000  1
  C  C244  1  0.66640000  0.00000000  0.47360000  1
  C  C245  1  0.15320000  0.00000000  0.78160000  1
  C  C246  1  0.19270000  0.00000000  0.74420000  1
  C  C247  1  0.38790000  0.00000000  0.54320000  1
  C  C248  1  0.33360000  0.00000000  0.52640000  1
  C  C249  1  0.15320000  0.00000000  0.21840000  1
  C  C250  1  0.19270000  0.00000000  0.25580000  1
  C  C251  1  0.38790000  0.00000000  0.45680000  1
  C  C252  1  0.33360000  0.00000000  0.47360000  1
  C  C253  1  0.84680000  0.00000000  0.78160000  1
  C  C254  1  0.80730000  0.00000000  0.74420000  1
  C  C255  1  0.61210000  0.00000000  0.54320000  1
  C  C256  1  0.66640000  0.00000000  0.52640000  1
  C  C257  1  0.00000000  0.78160000  0.15320000  1
  C  C258  1  0.00000000  0.74420000  0.19270000  1
  C  C259  1  0.00000000  0.54320000  0.38790000  1
  C  C260  1  0.00000000  0.52640000  0.33360000  1
  C  C261  1  0.00000000  0.21840000  0.84680000  1
  C  C262  1  0.00000000  0.25580000  0.80730000  1
  C  C263  1  0.00000000  0.45680000  0.61210000  1
  C  C264  1  0.00000000  0.47360000  0.66640000  1
  C  C265  1  0.00000000  0.78160000  0.84680000  1
  C  C266  1  0.00000000  0.74420000  0.80730000  1
  C  C267  1  0.00000000  0.54320000  0.61210000  1
  C  C268  1  0.00000000  0.52640000  0.66640000  1
  C  C269  1  0.00000000  0.21840000  0.15320000  1
  C  C270  1  0.00000000  0.25580000  0.19270000  1
  C  C271  1  0.00000000  0.45680000  0.38790000  1
  C  C272  1  0.00000000  0.47360000  0.33360000  1
  C  C273  1  0.87590000  0.87590000  0.00000000  1
  C  C274  1  0.83410000  0.83410000  0.00000000  1
  C  C275  1  0.75640000  0.75640000  0.00000000  1
  C  C276  1  0.71700000  0.71700000  0.00000000  1
  C  C277  1  0.59590000  0.59590000  0.00000000  1
  C  C278  1  0.63700000  0.63700000  0.00000000  1
  C  C279  1  0.12410000  0.12410000  0.00000000  1
  C  C280  1  0.16590000  0.16590000  0.00000000  1
  C  C281  1  0.24360000  0.24360000  0.00000000  1
  C  C282  1  0.28300000  0.28300000  0.00000000  1
  C  C283  1  0.40410000  0.40410000  0.00000000  1
  C  C284  1  0.36300000  0.36300000  0.00000000  1
  C  C285  1  0.12410000  0.87590000  0.00000000  1
  C  C286  1  0.16590000  0.83410000  0.00000000  1
  C  C287  1  0.24360000  0.75640000  0.00000000  1
  C  C288  1  0.28300000  0.71700000  0.00000000  1
  C  C289  1  0.40410000  0.59590000  0.00000000  1
  C  C290  1  0.36300000  0.63700000  0.00000000  1
  C  C291  1  0.87590000  0.12410000  0.00000000  1
  C  C292  1  0.83410000  0.16590000  0.00000000  1
  C  C293  1  0.75640000  0.24360000  0.00000000  1
  C  C294  1  0.71700000  0.28300000  0.00000000  1
  C  C295  1  0.59590000  0.40410000  0.00000000  1
  C  C296  1  0.63700000  0.36300000  0.00000000  1
  C  C297  1  0.00000000  0.87590000  0.87590000  1
  C  C298  1  0.00000000  0.83410000  0.83410000  1
  C  C299  1  0.00000000  0.75640000  0.75640000  1
  C  C300  1  0.00000000  0.71700000  0.71700000  1
  C  C301  1  0.00000000  0.59590000  0.59590000  1
  C  C302  1  0.00000000  0.63700000  0.63700000  1
  C  C303  1  0.00000000  0.12410000  0.12410000  1
  C  C304  1  0.00000000  0.16590000  0.16590000  1
  C  C305  1  0.00000000  0.24360000  0.24360000  1
  C  C306  1  0.00000000  0.28300000  0.28300000  1
  C  C307  1  0.00000000  0.40410000  0.40410000  1
  C  C308  1  0.00000000  0.36300000  0.36300000  1
  C  C309  1  0.00000000  0.12410000  0.87590000  1
  C  C310  1  0.00000000  0.16590000  0.83410000  1
  C  C311  1  0.00000000  0.24360000  0.75640000  1
  C  C312  1  0.00000000  0.28300000  0.71700000  1
  C  C313  1  0.00000000  0.40410000  0.59590000  1
  C  C314  1  0.00000000  0.36300000  0.63700000  1
  C  C315  1  0.00000000  0.87590000  0.12410000  1
  C  C316  1  0.00000000  0.83410000  0.16590000  1
  C  C317  1  0.00000000  0.75640000  0.24360000  1
  C  C318  1  0.00000000  0.71700000  0.28300000  1
  C  C319  1  0.00000000  0.59590000  0.40410000  1
  C  C320  1  0.00000000  0.63700000  0.36300000  1
  C  C321  1  0.87590000  0.00000000  0.87590000  1
  C  C322  1  0.83410000  0.00000000  0.83410000  1
  C  C323  1  0.75640000  0.00000000  0.75640000  1
  C  C324  1  0.71700000  0.00000000  0.71700000  1
  C  C325  1  0.59590000  0.00000000  0.59590000  1
  C  C326  1  0.63700000  0.00000000  0.63700000  1
  C  C327  1  0.12410000  0.00000000  0.12410000  1
  C  C328  1  0.16590000  0.00000000  0.16590000  1
  C  C329  1  0.24360000  0.00000000  0.24360000  1
  C  C330  1  0.28300000  0.00000000  0.28300000  1
  C  C331  1  0.40410000  0.00000000  0.40410000  1
  C  C332  1  0.36300000  0.00000000  0.36300000  1
  C  C333  1  0.87590000  0.00000000  0.12410000  1
  C  C334  1  0.83410000  0.00000000  0.16590000  1
  C  C335  1  0.75640000  0.00000000  0.24360000  1
  C  C336  1  0.71700000  0.00000000  0.28300000  1
  C  C337  1  0.59590000  0.00000000  0.40410000  1
  C  C338  1  0.63700000  0.00000000  0.36300000  1
  C  C339  1  0.12410000  0.00000000  0.87590000  1
  C  C340  1  0.16590000  0.00000000  0.83410000  1
  C  C341  1  0.24360000  0.00000000  0.75640000  1
  C  C342  1  0.28300000  0.00000000  0.71700000  1
  C  C343  1  0.40410000  0.00000000  0.59590000  1
  C  C344  1  0.36300000  0.00000000  0.63700000  1
  N  N345  1  0.58010000  0.50000000  0.00000000  1
  N  N346  1  0.41990000  0.50000000  0.00000000  1
  N  N347  1  0.00000000  0.58010000  0.50000000  1
  N  N348  1  0.00000000  0.41990000  0.50000000  1
  N  N349  1  0.50000000  0.00000000  0.58010000  1
  N  N350  1  0.50000000  0.00000000  0.41990000  1
  N  N351  1  0.50000000  0.58010000  0.00000000  1
  N  N352  1  0.50000000  0.41990000  0.00000000  1
  N  N353  1  0.58010000  0.00000000  0.50000000  1
  N  N354  1  0.41990000  0.00000000  0.50000000  1
  N  N355  1  0.00000000  0.50000000  0.41990000  1
  N  N356  1  0.00000000  0.50000000  0.58010000  1
  O  O357  1  0.95200000  0.95200000  0.95200000  1
  O  O358  1  0.04800000  0.04800000  0.95200000  1
  O  O359  1  0.04800000  0.95200000  0.04800000  1
  O  O360  1  0.95200000  0.04800000  0.04800000  1
  O  O361  1  0.95200000  0.95200000  0.04800000  1
  O  O362  1  0.04800000  0.04800000  0.04800000  1
  O  O363  1  0.95200000  0.04800000  0.95200000  1
  O  O364  1  0.04800000  0.95200000  0.95200000  1
  O  O365  1  0.92360000  0.85990000  0.00000000  1
  O  O366  1  0.07640000  0.14010000  0.00000000  1
  O  O367  1  0.07640000  0.85990000  0.00000000  1
  O  O368  1  0.92360000  0.14010000  0.00000000  1
  O  O369  1  0.00000000  0.92360000  0.85990000  1
  O  O370  1  0.00000000  0.07640000  0.14010000  1
  O  O371  1  0.00000000  0.07640000  0.85990000  1
  O  O372  1  0.00000000  0.92360000  0.14010000  1
  O  O373  1  0.85990000  0.00000000  0.92360000  1
  O  O374  1  0.14010000  0.00000000  0.07640000  1
  O  O375  1  0.85990000  0.00000000  0.07640000  1
  O  O376  1  0.14010000  0.00000000  0.92360000  1
  O  O377  1  0.85990000  0.92360000  0.00000000  1
  O  O378  1  0.14010000  0.07640000  0.00000000  1
  O  O379  1  0.85990000  0.07640000  0.00000000  1
  O  O380  1  0.14010000  0.92360000  0.00000000  1
  O  O381  1  0.92360000  0.00000000  0.14010000  1
  O  O382  1  0.07640000  0.00000000  0.85990000  1
  O  O383  1  0.07640000  0.00000000  0.14010000  1
  O  O384  1  0.92360000  0.00000000  0.85990000  1
  O  O385  1  0.00000000  0.85990000  0.07640000  1
  O  O386  1  0.00000000  0.14010000  0.92360000  1
  O  O387  1  0.00000000  0.85990000  0.92360000  1
  O  O388  1  0.00000000  0.14010000  0.07640000  1
