# generated using pymatgen
data_Zr3H10C24(SO11)2
_symmetry_space_group_name_H-M   'P 1'
_cell_length_a   17.75060000
_cell_length_b   17.75060000
_cell_length_c   22.48630000
_cell_angle_alpha   90.00000000
_cell_angle_beta   90.00000000
_cell_angle_gamma   90.00000000
_symmetry_Int_Tables_number   1
_chemical_formula_structural   Zr3H10C24(SO11)2
_chemical_formula_sum   'Zr12 H40 C96 S8 O88'
_cell_volume   7085.06886004
_cell_formula_units_Z   4
loop_
 _symmetry_equiv_pos_site_id
 _symmetry_equiv_pos_as_xyz
  1  'x, y, z'
loop_
 _atom_site_type_symbol
 _atom_site_label
 _atom_site_symmetry_multiplicity
 _atom_site_fract_x
 _atom_site_fract_y
 _atom_site_fract_z
 _atom_site_occupancy
  Zr  Zr0  1  0.40018000  0.40034000  0.50000000  1
  Zr  Zr1  1  0.90018000  0.90034000  0.00000000  1
  Zr  Zr2  1  0.59982000  0.59966000  0.50000000  1
  Zr  Zr3  1  0.09982000  0.09966000  0.00000000  1
  Zr  Zr4  1  0.59966000  0.40018000  0.50000000  1
  Zr  Zr5  1  0.09966000  0.90018000  0.00000000  1
  Zr  Zr6  1  0.40034000  0.59982000  0.50000000  1
  Zr  Zr7  1  0.90034000  0.09982000  0.00000000  1
  Zr  Zr8  1  0.50000000  0.50000000  0.60899000  1
  Zr  Zr9  1  0.00000000  0.00000000  0.10899000  1
  Zr  Zr10  1  0.50000000  0.50000000  0.39101000  1
  Zr  Zr11  1  0.00000000  0.00000000  0.89101000  1
  H  H12  1  0.72580000  0.72670000  0.63550000  1
  H  H13  1  0.61360000  0.61280000  0.75900000  1
  H  H14  1  0.22580000  0.22670000  0.13550000  1
  H  H15  1  0.11360000  0.11280000  0.25900000  1
  H  H16  1  0.27420000  0.27330000  0.63550000  1
  H  H17  1  0.38640000  0.38720000  0.75900000  1
  H  H18  1  0.77420000  0.77330000  0.13550000  1
  H  H19  1  0.88640000  0.88720000  0.25900000  1
  H  H20  1  0.27330000  0.72580000  0.63550000  1
  H  H21  1  0.38720000  0.61360000  0.75900000  1
  H  H22  1  0.77330000  0.22580000  0.13550000  1
  H  H23  1  0.88720000  0.11360000  0.25900000  1
  H  H24  1  0.72670000  0.27420000  0.63550000  1
  H  H25  1  0.61280000  0.38640000  0.75900000  1
  H  H26  1  0.22670000  0.77420000  0.13550000  1
  H  H27  1  0.11280000  0.88640000  0.25900000  1
  H  H28  1  0.27420000  0.27330000  0.36450000  1
  H  H29  1  0.38640000  0.38720000  0.24100000  1
  H  H30  1  0.77420000  0.77330000  0.86450000  1
  H  H31  1  0.88640000  0.88720000  0.74100000  1
  H  H32  1  0.72580000  0.72670000  0.36450000  1
  H  H33  1  0.61360000  0.61280000  0.24100000  1
  H  H34  1  0.22580000  0.22670000  0.86450000  1
  H  H35  1  0.11360000  0.11280000  0.74100000  1
  H  H36  1  0.72670000  0.27420000  0.36450000  1
  H  H37  1  0.61280000  0.38640000  0.24100000  1
  H  H38  1  0.22670000  0.77420000  0.86450000  1
  H  H39  1  0.11280000  0.88640000  0.74100000  1
  H  H40  1  0.27330000  0.72580000  0.36450000  1
  H  H41  1  0.38720000  0.61360000  0.24100000  1
  H  H42  1  0.77330000  0.22580000  0.86450000  1
  H  H43  1  0.88720000  0.11360000  0.74100000  1
  H  H44  1  0.17448000  0.82164000  0.65385000  1
  H  H45  1  0.67836000  0.67448000  0.84615000  1
  H  H46  1  0.17448000  0.82164000  0.34615000  1
  H  H47  1  0.67836000  0.67448000  0.15385000  1
  H  H48  1  0.17836000  0.17448000  0.65385000  1
  H  H49  1  0.67448000  0.32164000  0.84615000  1
  H  H50  1  0.17836000  0.17448000  0.34615000  1
  H  H51  1  0.67448000  0.32164000  0.15385000  1
  C  C52  1  0.62380000  0.62240000  0.64370000  1
  C  C53  1  0.66510000  0.66340000  0.69050000  1
  C  C54  1  0.71690000  0.71650000  0.67630000  1
  C  C55  1  0.74170000  0.74280000  0.78110000  1
  C  C56  1  0.68900000  0.68740000  0.79720000  1
  C  C57  1  0.65070000  0.64940000  0.74930000  1
  C  C58  1  0.12380000  0.12240000  0.14370000  1
  C  C59  1  0.16510000  0.16340000  0.19050000  1
  C  C60  1  0.21690000  0.21650000  0.17630000  1
  C  C61  1  0.24170000  0.24280000  0.28110000  1
  C  C62  1  0.18900000  0.18740000  0.29720000  1
  C  C63  1  0.15070000  0.14940000  0.24930000  1
  C  C64  1  0.37620000  0.37760000  0.64370000  1
  C  C65  1  0.33490000  0.33660000  0.69050000  1
  C  C66  1  0.28310000  0.28350000  0.67630000  1
  C  C67  1  0.25830000  0.25720000  0.78110000  1
  C  C68  1  0.31100000  0.31260000  0.79720000  1
  C  C69  1  0.34930000  0.35060000  0.74930000  1
  C  C70  1  0.87620000  0.87760000  0.14370000  1
  C  C71  1  0.83490000  0.83660000  0.19050000  1
  C  C72  1  0.78310000  0.78350000  0.17630000  1
  C  C73  1  0.75830000  0.75720000  0.28110000  1
  C  C74  1  0.81100000  0.81260000  0.29720000  1
  C  C75  1  0.84930000  0.85060000  0.24930000  1
  C  C76  1  0.37760000  0.62380000  0.64370000  1
  C  C77  1  0.33660000  0.66510000  0.69050000  1
  C  C78  1  0.28350000  0.71690000  0.67630000  1
  C  C79  1  0.25720000  0.74170000  0.78110000  1
  C  C80  1  0.31260000  0.68900000  0.79720000  1
  C  C81  1  0.35060000  0.65070000  0.74930000  1
  C  C82  1  0.87760000  0.12380000  0.14370000  1
  C  C83  1  0.83660000  0.16510000  0.19050000  1
  C  C84  1  0.78350000  0.21690000  0.17630000  1
  C  C85  1  0.75720000  0.24170000  0.28110000  1
  C  C86  1  0.81260000  0.18900000  0.29720000  1
  C  C87  1  0.85060000  0.15070000  0.24930000  1
  C  C88  1  0.62240000  0.37620000  0.64370000  1
  C  C89  1  0.66340000  0.33490000  0.69050000  1
  C  C90  1  0.71650000  0.28310000  0.67630000  1
  C  C91  1  0.74280000  0.25830000  0.78110000  1
  C  C92  1  0.68740000  0.31100000  0.79720000  1
  C  C93  1  0.64940000  0.34930000  0.74930000  1
  C  C94  1  0.12240000  0.87620000  0.14370000  1
  C  C95  1  0.16340000  0.83490000  0.19050000  1
  C  C96  1  0.21650000  0.78310000  0.17630000  1
  C  C97  1  0.24280000  0.75830000  0.28110000  1
  C  C98  1  0.18740000  0.81100000  0.29720000  1
  C  C99  1  0.14940000  0.84930000  0.24930000  1
  C  C100  1  0.37620000  0.37760000  0.35630000  1
  C  C101  1  0.33490000  0.33660000  0.30950000  1
  C  C102  1  0.28310000  0.28350000  0.32370000  1
  C  C103  1  0.25830000  0.25720000  0.21890000  1
  C  C104  1  0.31100000  0.31260000  0.20280000  1
  C  C105  1  0.34930000  0.35060000  0.25070000  1
  C  C106  1  0.87620000  0.87760000  0.85630000  1
  C  C107  1  0.83490000  0.83660000  0.80950000  1
  C  C108  1  0.78310000  0.78350000  0.82370000  1
  C  C109  1  0.75830000  0.75720000  0.71890000  1
  C  C110  1  0.81100000  0.81260000  0.70280000  1
  C  C111  1  0.84930000  0.85060000  0.75070000  1
  C  C112  1  0.62380000  0.62240000  0.35630000  1
  C  C113  1  0.66510000  0.66340000  0.30950000  1
  C  C114  1  0.71690000  0.71650000  0.32370000  1
  C  C115  1  0.74170000  0.74280000  0.21890000  1
  C  C116  1  0.68900000  0.68740000  0.20280000  1
  C  C117  1  0.65070000  0.64940000  0.25070000  1
  C  C118  1  0.12380000  0.12240000  0.85630000  1
  C  C119  1  0.16510000  0.16340000  0.80950000  1
  C  C120  1  0.21690000  0.21650000  0.82370000  1
  C  C121  1  0.24170000  0.24280000  0.71890000  1
  C  C122  1  0.18900000  0.18740000  0.70280000  1
  C  C123  1  0.15070000  0.14940000  0.75070000  1
  C  C124  1  0.62240000  0.37620000  0.35630000  1
  C  C125  1  0.66340000  0.33490000  0.30950000  1
  C  C126  1  0.71650000  0.28310000  0.32370000  1
  C  C127  1  0.74280000  0.25830000  0.21890000  1
  C  C128  1  0.68740000  0.31100000  0.20280000  1
  C  C129  1  0.64940000  0.34930000  0.25070000  1
  C  C130  1  0.12240000  0.87620000  0.85630000  1
  C  C131  1  0.16340000  0.83490000  0.80950000  1
  C  C132  1  0.21650000  0.78310000  0.82370000  1
  C  C133  1  0.24280000  0.75830000  0.71890000  1
  C  C134  1  0.18740000  0.81100000  0.70280000  1
  C  C135  1  0.14940000  0.84930000  0.75070000  1
  C  C136  1  0.37760000  0.62380000  0.35630000  1
  C  C137  1  0.33660000  0.66510000  0.30950000  1
  C  C138  1  0.28350000  0.71690000  0.32370000  1
  C  C139  1  0.25720000  0.74170000  0.21890000  1
  C  C140  1  0.31260000  0.68900000  0.20280000  1
  C  C141  1  0.35060000  0.65070000  0.25070000  1
  C  C142  1  0.87760000  0.12380000  0.85630000  1
  C  C143  1  0.83660000  0.16510000  0.80950000  1
  C  C144  1  0.78350000  0.21690000  0.82370000  1
  C  C145  1  0.75720000  0.24170000  0.71890000  1
  C  C146  1  0.81260000  0.18900000  0.70280000  1
  C  C147  1  0.85060000  0.15070000  0.75070000  1
  S  S148  1  0.33300000  0.33340000  0.87320000  1
  S  S149  1  0.83300000  0.83340000  0.37320000  1
  S  S150  1  0.33340000  0.66700000  0.87320000  1
  S  S151  1  0.83340000  0.16700000  0.37320000  1
  S  S152  1  0.33300000  0.33340000  0.12680000  1
  S  S153  1  0.83300000  0.83340000  0.62680000  1
  S  S154  1  0.33340000  0.66700000  0.12680000  1
  S  S155  1  0.83340000  0.16700000  0.62680000  1
  O  O156  1  0.38830000  0.50020000  0.55980000  1
  O  O157  1  0.63920000  0.63800000  0.59070000  1
  O  O158  1  0.57480000  0.57430000  0.66110000  1
  O  O159  1  0.41640000  0.50080000  0.54410000  1
  O  O160  1  0.88830000  0.00020000  0.05980000  1
  O  O161  1  0.13920000  0.13800000  0.09070000  1
  O  O162  1  0.07480000  0.07430000  0.16110000  1
  O  O163  1  0.91640000  0.00080000  0.04410000  1
  O  O164  1  0.61170000  0.49980000  0.55980000  1
  O  O165  1  0.36080000  0.36200000  0.59070000  1
  O  O166  1  0.42520000  0.42570000  0.66110000  1
  O  O167  1  0.39280000  0.39120000  0.86760000  1
  O  O168  1  0.27200000  0.35420000  0.89970000  1
  O  O169  1  0.58360000  0.49920000  0.54410000  1
  O  O170  1  0.38200000  0.27000000  0.86400000  1
  O  O171  1  0.11170000  0.99980000  0.05980000  1
  O  O172  1  0.86080000  0.86200000  0.09070000  1
  O  O173  1  0.92520000  0.92570000  0.16110000  1
  O  O174  1  0.85530000  0.76660000  0.39790000  1
  O  O175  1  0.89280000  0.89120000  0.36760000  1
  O  O176  1  0.08360000  0.99920000  0.04410000  1
  O  O177  1  0.76800000  0.88400000  0.36400000  1
  O  O178  1  0.49980000  0.38830000  0.55980000  1
  O  O179  1  0.36200000  0.63920000  0.59070000  1
  O  O180  1  0.42570000  0.57480000  0.66110000  1
  O  O181  1  0.26660000  0.64470000  0.89790000  1
  O  O182  1  0.39120000  0.60720000  0.86760000  1
  O  O183  1  0.49920000  0.41640000  0.54410000  1
  O  O184  1  0.38400000  0.73200000  0.86400000  1
  O  O185  1  0.99980000  0.88830000  0.05980000  1
  O  O186  1  0.86200000  0.13920000  0.09070000  1
  O  O187  1  0.92570000  0.07480000  0.16110000  1
  O  O188  1  0.76660000  0.14470000  0.39790000  1
  O  O189  1  0.89120000  0.10720000  0.36760000  1
  O  O190  1  0.85420000  0.22800000  0.39970000  1
  O  O191  1  0.99920000  0.91640000  0.04410000  1
  O  O192  1  0.50020000  0.61170000  0.55980000  1
  O  O193  1  0.63800000  0.36080000  0.59070000  1
  O  O194  1  0.57430000  0.42520000  0.66110000  1
  O  O195  1  0.50080000  0.58360000  0.54410000  1
  O  O196  1  0.00020000  0.11170000  0.05980000  1
  O  O197  1  0.13800000  0.86080000  0.09070000  1
  O  O198  1  0.07430000  0.92520000  0.16110000  1
  O  O199  1  0.00080000  0.08360000  0.04410000  1
  O  O200  1  0.61170000  0.49980000  0.44020000  1
  O  O201  1  0.36080000  0.36200000  0.40930000  1
  O  O202  1  0.42520000  0.42570000  0.33890000  1
  O  O203  1  0.35530000  0.26660000  0.10210000  1
  O  O204  1  0.39280000  0.39120000  0.13240000  1
  O  O205  1  0.58360000  0.49920000  0.45590000  1
  O  O206  1  0.26800000  0.38400000  0.13600000  1
  O  O207  1  0.11170000  0.99980000  0.94020000  1
  O  O208  1  0.86080000  0.86200000  0.90930000  1
  O  O209  1  0.92520000  0.92570000  0.83890000  1
  O  O210  1  0.89280000  0.89120000  0.63240000  1
  O  O211  1  0.77200000  0.85420000  0.60030000  1
  O  O212  1  0.08360000  0.99920000  0.95590000  1
  O  O213  1  0.88200000  0.77000000  0.63600000  1
  O  O214  1  0.38830000  0.50020000  0.44020000  1
  O  O215  1  0.63920000  0.63800000  0.40930000  1
  O  O216  1  0.57480000  0.57430000  0.33890000  1
  O  O217  1  0.41640000  0.50080000  0.45590000  1
  O  O218  1  0.88830000  0.00020000  0.94020000  1
  O  O219  1  0.13920000  0.13800000  0.90930000  1
  O  O220  1  0.07480000  0.07430000  0.83890000  1
  O  O221  1  0.91640000  0.00080000  0.95590000  1
  O  O222  1  0.50020000  0.61170000  0.44020000  1
  O  O223  1  0.63800000  0.36080000  0.40930000  1
  O  O224  1  0.57430000  0.42520000  0.33890000  1
  O  O225  1  0.50080000  0.58360000  0.45590000  1
  O  O226  1  0.00020000  0.11170000  0.94020000  1
  O  O227  1  0.13800000  0.86080000  0.90930000  1
  O  O228  1  0.07430000  0.92520000  0.83890000  1
  O  O229  1  0.00080000  0.08360000  0.95590000  1
  O  O230  1  0.49980000  0.38830000  0.44020000  1
  O  O231  1  0.36200000  0.63920000  0.40930000  1
  O  O232  1  0.42570000  0.57480000  0.33890000  1
  O  O233  1  0.26660000  0.64470000  0.10210000  1
  O  O234  1  0.39120000  0.60720000  0.13240000  1
  O  O235  1  0.49920000  0.41640000  0.45590000  1
  O  O236  1  0.38400000  0.73200000  0.13600000  1
  O  O237  1  0.99980000  0.88830000  0.94020000  1
  O  O238  1  0.86200000  0.13920000  0.90930000  1
  O  O239  1  0.92570000  0.07480000  0.83890000  1
  O  O240  1  0.89120000  0.10720000  0.63240000  1
  O  O241  1  0.85420000  0.22800000  0.60030000  1
  O  O242  1  0.99920000  0.91640000  0.95590000  1
  O  O243  1  0.77000000  0.11800000  0.63600000  1
