# generated using pymatgen
data_Zr6H25C36O29
_symmetry_space_group_name_H-M   'P 1'
_cell_length_a   14.71300000
_cell_length_b   14.71300000
_cell_length_c   36.97940000
_cell_angle_alpha   90.00000000
_cell_angle_beta   90.00000000
_cell_angle_gamma   120.00000000
_symmetry_Int_Tables_number   1
_chemical_formula_structural   Zr6H25C36O29
_chemical_formula_sum   'Zr24 H100 C144 O116'
_cell_volume   6932.54922478
_cell_formula_units_Z   4
loop_
 _symmetry_equiv_pos_site_id
 _symmetry_equiv_pos_as_xyz
  1  'x, y, z'
loop_
 _atom_site_type_symbol
 _atom_site_label
 _atom_site_symmetry_multiplicity
 _atom_site_fract_x
 _atom_site_fract_y
 _atom_site_fract_z
 _atom_site_occupancy
  Zr  Zr0  1  0.25469000  0.74531000  0.62500000  1
  Zr  Zr1  1  0.17098000  0.58549000  0.70245000  1
  Zr  Zr2  1  0.74531000  0.25469000  0.37500000  1
  Zr  Zr3  1  0.82902000  0.41451000  0.29755000  1
  Zr  Zr4  1  0.49062000  0.74531000  0.62500000  1
  Zr  Zr5  1  0.41451000  0.82902000  0.70245000  1
  Zr  Zr6  1  0.50938000  0.25469000  0.37500000  1
  Zr  Zr7  1  0.58549000  0.17098000  0.29755000  1
  Zr  Zr8  1  0.25469000  0.50938000  0.62500000  1
  Zr  Zr9  1  0.41451000  0.58549000  0.70245000  1
  Zr  Zr10  1  0.74531000  0.49062000  0.37500000  1
  Zr  Zr11  1  0.58549000  0.41451000  0.29755000  1
  Zr  Zr12  1  0.82902000  0.41451000  0.20245000  1
  Zr  Zr13  1  0.17098000  0.58549000  0.79755000  1
  Zr  Zr14  1  0.58549000  0.17098000  0.20245000  1
  Zr  Zr15  1  0.41451000  0.82902000  0.79755000  1
  Zr  Zr16  1  0.58549000  0.41451000  0.20245000  1
  Zr  Zr17  1  0.41451000  0.58549000  0.79755000  1
  Zr  Zr18  1  0.74531000  0.49062000  0.12500000  1
  Zr  Zr19  1  0.25469000  0.50938000  0.87500000  1
  Zr  Zr20  1  0.74531000  0.25469000  0.12500000  1
  Zr  Zr21  1  0.25469000  0.74531000  0.87500000  1
  Zr  Zr22  1  0.50938000  0.25469000  0.12500000  1
  Zr  Zr23  1  0.49062000  0.74531000  0.87500000  1
  H  H24  1  0.32519000  0.94293000  0.52850000  1
  H  H25  1  0.44169000  0.13807000  0.70276000  1
  H  H26  1  0.22992000  0.02643000  0.61092000  1
  H  H27  1  0.33333333  0.66666667  0.56991000  1
  H  H28  1  0.20610000  0.79391000  0.69456000  1
  H  H29  1  0.11205000  0.41089000  0.75000000  1
  H  H30  1  0.38226000  0.05707000  0.47150000  1
  H  H31  1  0.61774000  0.94293000  0.52850000  1
  H  H32  1  0.67481000  0.05707000  0.47150000  1
  H  H33  1  0.44169000  0.30362000  0.70276000  1
  H  H34  1  0.22992000  0.20350000  0.61092000  1
  H  H35  1  0.55831000  0.86193000  0.29724000  1
  H  H36  1  0.77008000  0.97357000  0.38908000  1
  H  H37  1  0.66666667  0.33333333  0.43009000  1
  H  H38  1  0.79390000  0.20609000  0.30544000  1
  H  H39  1  0.88795000  0.58910000  0.25000000  1
  H  H40  1  0.55831000  0.69638000  0.29724000  1
  H  H41  1  0.77008000  0.79650000  0.38908000  1
  H  H42  1  0.61774000  0.67481000  0.52850000  1
  H  H43  1  0.69638000  0.55831000  0.70276000  1
  H  H44  1  0.79651000  0.77009000  0.61092000  1
  H  H45  1  0.58781000  0.79391000  0.69456000  1
  H  H46  1  0.29885000  0.88796000  0.75000000  1
  H  H47  1  0.67481000  0.61774000  0.47150000  1
  H  H48  1  0.32519000  0.38226000  0.52850000  1
  H  H49  1  0.38226000  0.32519000  0.47150000  1
  H  H50  1  0.86193000  0.55831000  0.70276000  1
  H  H51  1  0.97358000  0.77009000  0.61092000  1
  H  H52  1  0.30362000  0.44169000  0.29724000  1
  H  H53  1  0.20349000  0.22991000  0.38908000  1
  H  H54  1  0.41219000  0.20609000  0.30544000  1
  H  H55  1  0.70116000  0.11205000  0.25000000  1
  H  H56  1  0.13807000  0.44169000  0.29724000  1
  H  H57  1  0.02642000  0.22991000  0.38908000  1
  H  H58  1  0.05707000  0.38226000  0.52850000  1
  H  H59  1  0.86193000  0.30362000  0.70276000  1
  H  H60  1  0.97358000  0.20350000  0.61092000  1
  H  H61  1  0.20610000  0.41220000  0.69456000  1
  H  H62  1  0.58911000  0.70116000  0.75000000  1
  H  H63  1  0.94293000  0.32519000  0.47150000  1
  H  H64  1  0.05707000  0.67481000  0.52850000  1
  H  H65  1  0.94293000  0.61774000  0.47150000  1
  H  H66  1  0.69638000  0.13807000  0.70276000  1
  H  H67  1  0.79651000  0.02643000  0.61092000  1
  H  H68  1  0.13807000  0.69638000  0.29724000  1
  H  H69  1  0.02642000  0.79650000  0.38908000  1
  H  H70  1  0.79390000  0.58780000  0.30544000  1
  H  H71  1  0.41089000  0.29884000  0.25000000  1
  H  H72  1  0.30362000  0.86193000  0.29724000  1
  H  H73  1  0.20349000  0.97357000  0.38908000  1
  H  H74  1  0.94293000  0.61774000  0.02850000  1
  H  H75  1  0.13807000  0.69638000  0.20276000  1
  H  H76  1  0.02643000  0.79651000  0.11092000  1
  H  H77  1  0.66666667  0.33333333  0.06991000  1
  H  H78  1  0.79391000  0.58781000  0.19456000  1
  H  H79  1  0.05707000  0.67481000  0.97150000  1
  H  H80  1  0.94293000  0.32519000  0.02850000  1
  H  H81  1  0.05707000  0.38226000  0.97150000  1
  H  H82  1  0.30362000  0.86193000  0.20276000  1
  H  H83  1  0.20350000  0.97358000  0.11092000  1
  H  H84  1  0.86193000  0.30362000  0.79724000  1
  H  H85  1  0.97357000  0.20349000  0.88908000  1
  H  H86  1  0.33333333  0.66666667  0.93009000  1
  H  H87  1  0.20609000  0.41219000  0.80544000  1
  H  H88  1  0.69638000  0.13807000  0.79724000  1
  H  H89  1  0.79650000  0.02642000  0.88908000  1
  H  H90  1  0.67481000  0.05707000  0.02850000  1
  H  H91  1  0.55831000  0.86193000  0.20276000  1
  H  H92  1  0.77009000  0.97358000  0.11092000  1
  H  H93  1  0.79391000  0.20610000  0.19456000  1
  H  H94  1  0.61774000  0.94293000  0.97150000  1
  H  H95  1  0.38226000  0.05707000  0.02850000  1
  H  H96  1  0.32519000  0.94293000  0.97150000  1
  H  H97  1  0.55831000  0.69638000  0.20276000  1
  H  H98  1  0.77009000  0.79651000  0.11092000  1
  H  H99  1  0.44169000  0.13807000  0.79724000  1
  H  H100  1  0.22991000  0.02642000  0.88908000  1
  H  H101  1  0.20609000  0.79390000  0.80544000  1
  H  H102  1  0.44169000  0.30362000  0.79724000  1
  H  H103  1  0.22991000  0.20349000  0.88908000  1
  H  H104  1  0.38226000  0.32519000  0.02850000  1
  H  H105  1  0.30362000  0.44169000  0.20276000  1
  H  H106  1  0.20350000  0.22992000  0.11092000  1
  H  H107  1  0.41220000  0.20610000  0.19456000  1
  H  H108  1  0.32519000  0.38226000  0.97150000  1
  H  H109  1  0.67481000  0.61774000  0.02850000  1
  H  H110  1  0.61774000  0.67481000  0.97150000  1
  H  H111  1  0.13807000  0.44169000  0.20276000  1
  H  H112  1  0.02643000  0.22992000  0.11092000  1
  H  H113  1  0.69638000  0.55831000  0.79724000  1
  H  H114  1  0.79650000  0.77008000  0.88908000  1
  H  H115  1  0.58780000  0.79390000  0.80544000  1
  H  H116  1  0.86193000  0.55831000  0.79724000  1
  H  H117  1  0.97357000  0.77008000  0.88908000  1
  H  H118  1  0.29884000  0.41089000  0.75000000  1
  H  H119  1  0.70115000  0.58910000  0.25000000  1
  H  H120  1  0.58911000  0.88796000  0.75000000  1
  H  H121  1  0.41089000  0.11205000  0.25000000  1
  H  H122  1  0.11205000  0.70116000  0.75000000  1
  H  H123  1  0.88795000  0.29884000  0.25000000  1
  C  C124  1  0.43430000  0.86860000  0.56458000  1
  C  C125  1  0.46829000  0.93658000  0.53163000  1
  C  C126  1  0.40165000  0.96836000  0.51588000  1
  C  C127  1  0.33495000  0.97014000  0.65885000  1
  C  C128  1  0.33568000  0.07181000  0.65701000  1
  C  C129  1  0.39489000  0.15118000  0.68242000  1
  C  C130  1  0.27578000  0.08859000  0.63073000  1
  C  C131  1  0.56570000  0.13140000  0.43542000  1
  C  C132  1  0.53171000  0.06342000  0.46837000  1
  C  C133  1  0.43329000  0.03164000  0.48412000  1
  C  C134  1  0.56671000  0.96836000  0.51588000  1
  C  C135  1  0.59835000  0.03164000  0.48412000  1
  C  C136  1  0.33495000  0.36481000  0.65885000  1
  C  C137  1  0.33568000  0.26387000  0.65701000  1
  C  C138  1  0.39489000  0.24371000  0.68242000  1
  C  C139  1  0.27578000  0.18719000  0.63073000  1
  C  C140  1  0.66505000  0.02986000  0.34115000  1
  C  C141  1  0.66432000  0.92819000  0.34299000  1
  C  C142  1  0.60511000  0.84882000  0.31758000  1
  C  C143  1  0.72422000  0.91141000  0.36927000  1
  C  C144  1  0.66505000  0.63519000  0.34115000  1
  C  C145  1  0.66432000  0.73613000  0.34299000  1
  C  C146  1  0.60511000  0.75629000  0.31758000  1
  C  C147  1  0.72422000  0.81281000  0.36927000  1
  C  C148  1  0.43430000  0.56569000  0.56458000  1
  C  C149  1  0.46829000  0.53172000  0.53163000  1
  C  C150  1  0.56671000  0.59835000  0.51588000  1
  C  C151  1  0.63519000  0.66505000  0.65885000  1
  C  C152  1  0.73613000  0.66432000  0.65701000  1
  C  C153  1  0.75629000  0.60511000  0.68242000  1
  C  C154  1  0.81281000  0.72422000  0.63073000  1
  C  C155  1  0.56570000  0.43431000  0.43542000  1
  C  C156  1  0.53171000  0.46828000  0.46837000  1
  C  C157  1  0.59835000  0.56671000  0.48412000  1
  C  C158  1  0.40165000  0.43329000  0.51588000  1
  C  C159  1  0.43329000  0.40165000  0.48412000  1
  C  C160  1  0.02986000  0.66505000  0.65885000  1
  C  C161  1  0.92819000  0.66432000  0.65701000  1
  C  C162  1  0.84882000  0.60511000  0.68242000  1
  C  C163  1  0.91141000  0.72422000  0.63073000  1
  C  C164  1  0.36481000  0.33495000  0.34115000  1
  C  C165  1  0.26387000  0.33568000  0.34299000  1
  C  C166  1  0.24371000  0.39489000  0.31758000  1
  C  C167  1  0.18719000  0.27578000  0.36927000  1
  C  C168  1  0.97014000  0.33495000  0.34115000  1
  C  C169  1  0.07181000  0.33568000  0.34299000  1
  C  C170  1  0.15118000  0.39489000  0.31758000  1
  C  C171  1  0.08859000  0.27578000  0.36927000  1
  C  C172  1  0.13139000  0.56569000  0.56458000  1
  C  C173  1  0.06343000  0.53172000  0.53163000  1
  C  C174  1  0.03164000  0.43329000  0.51588000  1
  C  C175  1  0.02986000  0.36481000  0.65885000  1
  C  C176  1  0.92819000  0.26387000  0.65701000  1
  C  C177  1  0.84882000  0.24371000  0.68242000  1
  C  C178  1  0.91141000  0.18719000  0.63073000  1
  C  C179  1  0.86861000  0.43431000  0.43542000  1
  C  C180  1  0.93657000  0.46828000  0.46837000  1
  C  C181  1  0.96836000  0.40165000  0.48412000  1
  C  C182  1  0.03164000  0.59835000  0.51588000  1
  C  C183  1  0.96836000  0.56671000  0.48412000  1
  C  C184  1  0.63519000  0.97014000  0.65885000  1
  C  C185  1  0.73613000  0.07181000  0.65701000  1
  C  C186  1  0.75629000  0.15118000  0.68242000  1
  C  C187  1  0.81281000  0.08859000  0.63073000  1
  C  C188  1  0.97014000  0.63519000  0.34115000  1
  C  C189  1  0.07181000  0.73613000  0.34299000  1
  C  C190  1  0.15118000  0.75629000  0.31758000  1
  C  C191  1  0.08859000  0.81281000  0.36927000  1
  C  C192  1  0.36481000  0.02986000  0.34115000  1
  C  C193  1  0.26387000  0.92819000  0.34299000  1
  C  C194  1  0.24371000  0.84882000  0.31758000  1
  C  C195  1  0.18719000  0.91141000  0.36927000  1
  C  C196  1  0.86860000  0.43430000  0.06458000  1
  C  C197  1  0.93658000  0.46829000  0.03163000  1
  C  C198  1  0.96836000  0.56671000  0.01588000  1
  C  C199  1  0.97014000  0.63519000  0.15885000  1
  C  C200  1  0.07181000  0.73613000  0.15701000  1
  C  C201  1  0.15118000  0.75629000  0.18242000  1
  C  C202  1  0.08859000  0.81281000  0.13073000  1
  C  C203  1  0.13140000  0.56570000  0.93542000  1
  C  C204  1  0.06342000  0.53171000  0.96837000  1
  C  C205  1  0.03164000  0.59835000  0.98412000  1
  C  C206  1  0.96836000  0.40165000  0.01588000  1
  C  C207  1  0.03164000  0.43329000  0.98412000  1
  C  C208  1  0.36481000  0.02986000  0.15885000  1
  C  C209  1  0.26387000  0.92819000  0.15701000  1
  C  C210  1  0.24371000  0.84882000  0.18242000  1
  C  C211  1  0.18719000  0.91141000  0.13073000  1
  C  C212  1  0.02986000  0.36481000  0.84115000  1
  C  C213  1  0.92819000  0.26387000  0.84299000  1
  C  C214  1  0.84882000  0.24371000  0.81758000  1
  C  C215  1  0.91141000  0.18719000  0.86927000  1
  C  C216  1  0.63519000  0.97014000  0.84115000  1
  C  C217  1  0.73613000  0.07181000  0.84299000  1
  C  C218  1  0.75629000  0.15118000  0.81758000  1
  C  C219  1  0.81281000  0.08859000  0.86927000  1
  C  C220  1  0.56569000  0.13139000  0.06458000  1
  C  C221  1  0.53172000  0.06343000  0.03163000  1
  C  C222  1  0.59835000  0.03164000  0.01588000  1
  C  C223  1  0.66505000  0.02986000  0.15885000  1
  C  C224  1  0.66432000  0.92819000  0.15701000  1
  C  C225  1  0.60511000  0.84882000  0.18242000  1
  C  C226  1  0.72422000  0.91141000  0.13073000  1
  C  C227  1  0.43431000  0.86861000  0.93542000  1
  C  C228  1  0.46828000  0.93657000  0.96837000  1
  C  C229  1  0.56671000  0.96836000  0.98412000  1
  C  C230  1  0.43329000  0.03164000  0.01588000  1
  C  C231  1  0.40165000  0.96836000  0.98412000  1
  C  C232  1  0.66505000  0.63519000  0.15885000  1
  C  C233  1  0.66432000  0.73613000  0.15701000  1
  C  C234  1  0.60511000  0.75629000  0.18242000  1
  C  C235  1  0.72422000  0.81281000  0.13073000  1
  C  C236  1  0.33495000  0.97014000  0.84115000  1
  C  C237  1  0.33568000  0.07181000  0.84299000  1
  C  C238  1  0.39489000  0.15118000  0.81758000  1
  C  C239  1  0.27578000  0.08859000  0.86927000  1
  C  C240  1  0.33495000  0.36481000  0.84115000  1
  C  C241  1  0.33568000  0.26387000  0.84299000  1
  C  C242  1  0.39489000  0.24371000  0.81758000  1
  C  C243  1  0.27578000  0.18719000  0.86927000  1
  C  C244  1  0.56569000  0.43430000  0.06458000  1
  C  C245  1  0.53172000  0.46829000  0.03163000  1
  C  C246  1  0.43329000  0.40165000  0.01588000  1
  C  C247  1  0.36481000  0.33495000  0.15885000  1
  C  C248  1  0.26387000  0.33568000  0.15701000  1
  C  C249  1  0.24371000  0.39489000  0.18242000  1
  C  C250  1  0.18719000  0.27578000  0.13073000  1
  C  C251  1  0.43431000  0.56570000  0.93542000  1
  C  C252  1  0.46828000  0.53171000  0.96837000  1
  C  C253  1  0.40165000  0.43329000  0.98412000  1
  C  C254  1  0.59835000  0.56671000  0.01588000  1
  C  C255  1  0.56671000  0.59835000  0.98412000  1
  C  C256  1  0.97014000  0.33495000  0.15885000  1
  C  C257  1  0.07181000  0.33568000  0.15701000  1
  C  C258  1  0.15118000  0.39489000  0.18242000  1
  C  C259  1  0.08859000  0.27578000  0.13073000  1
  C  C260  1  0.63519000  0.66505000  0.84115000  1
  C  C261  1  0.73613000  0.66432000  0.84299000  1
  C  C262  1  0.75629000  0.60511000  0.81758000  1
  C  C263  1  0.81281000  0.72422000  0.86927000  1
  C  C264  1  0.02986000  0.66505000  0.84115000  1
  C  C265  1  0.92819000  0.66432000  0.84299000  1
  C  C266  1  0.84882000  0.60511000  0.81758000  1
  C  C267  1  0.91141000  0.72422000  0.86927000  1
  O  O268  1  0.34309000  0.84140000  0.57730000  1
  O  O269  1  0.27879000  0.90059000  0.63506000  1
  O  O270  1  0.38770000  0.95893000  0.68447000  1
  O  O271  1  0.33333333  0.66666667  0.59653000  1
  O  O272  1  0.39852000  0.79704000  0.64680000  1
  O  O273  1  0.24299000  0.75702000  0.68753000  1
  O  O274  1  0.33333333  0.66666667  0.71252000  1
  O  O275  1  0.13563000  0.48541000  0.75000000  1
  O  O276  1  0.50169000  0.15860000  0.42270000  1
  O  O277  1  0.49831000  0.84140000  0.57730000  1
  O  O278  1  0.65691000  0.15860000  0.42270000  1
  O  O279  1  0.27879000  0.37820000  0.63506000  1
  O  O280  1  0.38770000  0.42876000  0.68447000  1
  O  O281  1  0.72121000  0.09941000  0.36494000  1
  O  O282  1  0.61230000  0.04107000  0.31553000  1
  O  O283  1  0.66666667  0.33333333  0.40347000  1
  O  O284  1  0.60148000  0.20296000  0.35320000  1
  O  O285  1  0.75701000  0.24298000  0.31247000  1
  O  O286  1  0.66666667  0.33333333  0.28748000  1
  O  O287  1  0.86437000  0.51459000  0.25000000  1
  O  O288  1  0.72121000  0.62180000  0.36494000  1
  O  O289  1  0.61230000  0.57124000  0.31553000  1
  O  O290  1  0.49831000  0.65691000  0.57730000  1
  O  O291  1  0.62180000  0.72121000  0.63506000  1
  O  O292  1  0.57123000  0.61229000  0.68447000  1
  O  O293  1  0.39852000  0.60148000  0.64680000  1
  O  O294  1  0.51403000  0.75702000  0.68753000  1
  O  O295  1  0.34978000  0.86437000  0.75000000  1
  O  O296  1  0.65691000  0.49831000  0.42270000  1
  O  O297  1  0.34309000  0.50169000  0.57730000  1
  O  O298  1  0.50169000  0.34309000  0.42270000  1
  O  O299  1  0.09941000  0.72121000  0.63506000  1
  O  O300  1  0.04106000  0.61229000  0.68447000  1
  O  O301  1  0.37820000  0.27879000  0.36494000  1
  O  O302  1  0.42877000  0.38771000  0.31553000  1
  O  O303  1  0.60148000  0.39852000  0.35320000  1
  O  O304  1  0.48597000  0.24298000  0.31247000  1
  O  O305  1  0.65022000  0.13563000  0.25000000  1
  O  O306  1  0.90059000  0.27879000  0.36494000  1
  O  O307  1  0.95894000  0.38771000  0.31553000  1
  O  O308  1  0.15860000  0.50169000  0.57730000  1
  O  O309  1  0.09941000  0.37820000  0.63506000  1
  O  O310  1  0.04106000  0.42876000  0.68447000  1
  O  O311  1  0.20296000  0.60148000  0.64680000  1
  O  O312  1  0.24299000  0.48598000  0.68753000  1
  O  O313  1  0.51459000  0.65022000  0.75000000  1
  O  O314  1  0.84140000  0.34309000  0.42270000  1
  O  O315  1  0.15860000  0.65691000  0.57730000  1
  O  O316  1  0.84140000  0.49831000  0.42270000  1
  O  O317  1  0.62180000  0.90059000  0.63506000  1
  O  O318  1  0.57123000  0.95893000  0.68447000  1
  O  O319  1  0.90059000  0.62180000  0.36494000  1
  O  O320  1  0.95894000  0.57124000  0.31553000  1
  O  O321  1  0.79704000  0.39852000  0.35320000  1
  O  O322  1  0.75701000  0.51402000  0.31247000  1
  O  O323  1  0.48541000  0.34978000  0.25000000  1
  O  O324  1  0.37820000  0.09941000  0.36494000  1
  O  O325  1  0.42877000  0.04107000  0.31553000  1
  O  O326  1  0.65022000  0.51459000  0.25000000  1
  O  O327  1  0.34978000  0.48541000  0.75000000  1
  O  O328  1  0.48541000  0.13563000  0.25000000  1
  O  O329  1  0.51459000  0.86437000  0.75000000  1
  O  O330  1  0.86437000  0.34978000  0.25000000  1
  O  O331  1  0.13563000  0.65022000  0.75000000  1
  O  O332  1  0.84140000  0.49831000  0.07730000  1
  O  O333  1  0.90059000  0.62180000  0.13506000  1
  O  O334  1  0.95893000  0.57123000  0.18447000  1
  O  O335  1  0.66666667  0.33333333  0.09653000  1
  O  O336  1  0.79704000  0.39852000  0.14680000  1
  O  O337  1  0.75702000  0.51403000  0.18753000  1
  O  O338  1  0.66666667  0.33333333  0.21252000  1
  O  O339  1  0.15860000  0.65691000  0.92270000  1
  O  O340  1  0.84140000  0.34309000  0.07730000  1
  O  O341  1  0.15860000  0.50169000  0.92270000  1
  O  O342  1  0.37820000  0.09941000  0.13506000  1
  O  O343  1  0.42876000  0.04106000  0.18447000  1
  O  O344  1  0.09941000  0.37820000  0.86494000  1
  O  O345  1  0.04107000  0.42877000  0.81553000  1
  O  O346  1  0.33333333  0.66666667  0.90347000  1
  O  O347  1  0.20296000  0.60148000  0.85320000  1
  O  O348  1  0.24298000  0.48597000  0.81247000  1
  O  O349  1  0.33333333  0.66666667  0.78748000  1
  O  O350  1  0.62180000  0.90059000  0.86494000  1
  O  O351  1  0.57124000  0.95894000  0.81553000  1
  O  O352  1  0.65691000  0.15860000  0.07730000  1
  O  O353  1  0.72121000  0.09941000  0.13506000  1
  O  O354  1  0.61229000  0.04106000  0.18447000  1
  O  O355  1  0.60148000  0.20296000  0.14680000  1
  O  O356  1  0.75702000  0.24299000  0.18753000  1
  O  O357  1  0.49831000  0.84140000  0.92270000  1
  O  O358  1  0.50169000  0.15860000  0.07730000  1
  O  O359  1  0.34309000  0.84140000  0.92270000  1
  O  O360  1  0.72121000  0.62180000  0.13506000  1
  O  O361  1  0.61229000  0.57123000  0.18447000  1
  O  O362  1  0.27879000  0.90059000  0.86494000  1
  O  O363  1  0.38771000  0.95894000  0.81553000  1
  O  O364  1  0.39852000  0.79704000  0.85320000  1
  O  O365  1  0.24298000  0.75701000  0.81247000  1
  O  O366  1  0.27879000  0.37820000  0.86494000  1
  O  O367  1  0.38771000  0.42877000  0.81553000  1
  O  O368  1  0.50169000  0.34309000  0.07730000  1
  O  O369  1  0.37820000  0.27879000  0.13506000  1
  O  O370  1  0.42876000  0.38770000  0.18447000  1
  O  O371  1  0.60148000  0.39852000  0.14680000  1
  O  O372  1  0.48598000  0.24299000  0.18753000  1
  O  O373  1  0.34309000  0.50169000  0.92270000  1
  O  O374  1  0.65691000  0.49831000  0.07730000  1
  O  O375  1  0.49831000  0.65691000  0.92270000  1
  O  O376  1  0.90059000  0.27879000  0.13506000  1
  O  O377  1  0.95893000  0.38770000  0.18447000  1
  O  O378  1  0.62180000  0.72121000  0.86494000  1
  O  O379  1  0.57124000  0.61230000  0.81553000  1
  O  O380  1  0.39852000  0.60148000  0.85320000  1
  O  O381  1  0.51402000  0.75701000  0.81247000  1
  O  O382  1  0.09941000  0.72121000  0.86494000  1
  O  O383  1  0.04107000  0.61230000  0.81553000  1
