# generated using pymatgen
data_Zr3H24C45NO16F9
_symmetry_space_group_name_H-M   'P 1'
_cell_length_a   16.81640000
_cell_length_b   24.81751591
_cell_length_c   24.81751591
_cell_angle_alpha   118.15919690
_cell_angle_beta   90.00000000
_cell_angle_gamma   90.00000000
_symmetry_Int_Tables_number   1
_chemical_formula_structural   Zr3H24C45NO16F9
_chemical_formula_sum   'Zr12 H96 C180 N4 O64 F36'
_cell_volume   9131.47242901
_cell_formula_units_Z   4
loop_
 _symmetry_equiv_pos_site_id
 _symmetry_equiv_pos_as_xyz
  1  'x, y, z'
loop_
 _atom_site_type_symbol
 _atom_site_label
 _atom_site_symmetry_multiplicity
 _atom_site_fract_x
 _atom_site_fract_y
 _atom_site_fract_z
 _atom_site_occupancy
  C  C0  1  0.43280000  0.30180000  0.17940000  1
  C  C1  1  0.49790000  0.39860000  0.20620000  1
  C  C2  1  0.50050000  0.59560000  0.30840000  1
  C  C3  1  0.49310000  0.27110000  0.13830000  1
  C  C4  1  0.45810000  0.56200000  0.33060000  1
  C  C5  1  0.49820000  0.46750000  0.24090000  1
  C  C6  1  0.49540000  0.20390000  0.10150000  1
  C  C7  1  0.44460000  0.36530000  0.21530000  1
  C  C8  1  0.53460000  0.50190000  0.21810000  1
  C  C9  1  0.53850000  0.56550000  0.25410000  1
  C  C10  1  0.46260000  0.49780000  0.29600000  1
  C  C11  1  0.55900000  0.30410000  0.13490000  1
  C  C12  1  0.44720000  0.71480000  0.22940000  1
  C  C13  1  0.45250000  0.67810000  0.25810000  1
  C  C14  1  0.55960000  0.36660000  0.16560000  1
  C  C15  1  0.45740000  0.80930000  0.11970000  1
  C  C16  1  0.44970000  0.78100000  0.15940000  1
  C  C17  1  0.28450000  0.99200000  0.10420000  1
  C  C18  1  0.19370000  0.98630000  0.13230000  1
  C  C19  1  0.71190000  0.10390000  0.10390000  1
  C  C20  1  0.78890000  0.12740000  0.12740000  1
  C  C21  1  0.50000000  0.69280000  0.30720000  1
  C  C22  1  0.50000000  0.75890000  0.24110000  1
  C  C23  1  0.50000000  0.86050000  0.13950000  1
  C  C24  1  0.50000000  0.89530000  0.10470000  1
  C  C25  1  0.50000000  0.79370000  0.20630000  1
  C  C26  1  0.93280000  0.19820000  0.32060000  1
  C  C27  1  0.99790000  0.10140000  0.29380000  1
  C  C28  1  0.00050000  0.90440000  0.19160000  1
  C  C29  1  0.99310000  0.22890000  0.36170000  1
  C  C30  1  0.95810000  0.93800000  0.16940000  1
  C  C31  1  0.99820000  0.03250000  0.25910000  1
  C  C32  1  0.99540000  0.29610000  0.39850000  1
  C  C33  1  0.94460000  0.13470000  0.28470000  1
  C  C34  1  0.03460000  0.99810000  0.28190000  1
  C  C35  1  0.03850000  0.93450000  0.24590000  1
  C  C36  1  0.96260000  0.00220000  0.20400000  1
  C  C37  1  0.05900000  0.19590000  0.36510000  1
  C  C38  1  0.94720000  0.78520000  0.27060000  1
  C  C39  1  0.95250000  0.82190000  0.24190000  1
  C  C40  1  0.05960000  0.13340000  0.33440000  1
  C  C41  1  0.95740000  0.69070000  0.38030000  1
  C  C42  1  0.94970000  0.71900000  0.34060000  1
  C  C43  1  0.78450000  0.50800000  0.39580000  1
  C  C44  1  0.69370000  0.51370000  0.36770000  1
  C  C45  1  0.21190000  0.39610000  0.39610000  1
  C  C46  1  0.28890000  0.37260000  0.37260000  1
  C  C47  1  0.00000000  0.80720000  0.19280000  1
  C  C48  1  0.00000000  0.74110000  0.25890000  1
  C  C49  1  0.00000000  0.63950000  0.36050000  1
  C  C50  1  0.00000000  0.60470000  0.39530000  1
  C  C51  1  0.00000000  0.70630000  0.29370000  1
  C  C52  1  0.56720000  0.82060000  0.69820000  1
  C  C53  1  0.50210000  0.79380000  0.60140000  1
  C  C54  1  0.49950000  0.69160000  0.40440000  1
  C  C55  1  0.50690000  0.86170000  0.72890000  1
  C  C56  1  0.54190000  0.66940000  0.43800000  1
  C  C57  1  0.50180000  0.75910000  0.53250000  1
  C  C58  1  0.50460000  0.89850000  0.79610000  1
  C  C59  1  0.55540000  0.78470000  0.63470000  1
  C  C60  1  0.46540000  0.78190000  0.49810000  1
  C  C61  1  0.46150000  0.74590000  0.43450000  1
  C  C62  1  0.53740000  0.70400000  0.50220000  1
  C  C63  1  0.44100000  0.86510000  0.69590000  1
  C  C64  1  0.55280000  0.77060000  0.28520000  1
  C  C65  1  0.54750000  0.74190000  0.32190000  1
  C  C66  1  0.44040000  0.83440000  0.63340000  1
  C  C67  1  0.54260000  0.88030000  0.19070000  1
  C  C68  1  0.55030000  0.84060000  0.21900000  1
  C  C69  1  0.71550000  0.89580000  0.00800000  1
  C  C70  1  0.80630000  0.86770000  0.01370000  1
  C  C71  1  0.28810000  0.89610000  0.89610000  1
  C  C72  1  0.21110000  0.87260000  0.87260000  1
  C  C73  1  0.06720000  0.67940000  0.80180000  1
  C  C74  1  0.00210000  0.70620000  0.89860000  1
  C  C75  1  0.99950000  0.80840000  0.09560000  1
  C  C76  1  0.00690000  0.63830000  0.77110000  1
  C  C77  1  0.04190000  0.83060000  0.06200000  1
  C  C78  1  0.00180000  0.74090000  0.96750000  1
  C  C79  1  0.00460000  0.60150000  0.70390000  1
  C  C80  1  0.05540000  0.71530000  0.86530000  1
  C  C81  1  0.96540000  0.71810000  0.00190000  1
  C  C82  1  0.96150000  0.75410000  0.06550000  1
  C  C83  1  0.03740000  0.79600000  0.99780000  1
  C  C84  1  0.94100000  0.63490000  0.80410000  1
  C  C85  1  0.05280000  0.72940000  0.21480000  1
  C  C86  1  0.04750000  0.75810000  0.17810000  1
  C  C87  1  0.94040000  0.66560000  0.86660000  1
  C  C88  1  0.04260000  0.61970000  0.30930000  1
  C  C89  1  0.05030000  0.65940000  0.28100000  1
  C  C90  1  0.21550000  0.60420000  0.49200000  1
  C  C91  1  0.30630000  0.63230000  0.48630000  1
  C  C92  1  0.78810000  0.60390000  0.60390000  1
  C  C93  1  0.71110000  0.62740000  0.62740000  1
  C  C94  1  0.56720000  0.69820000  0.82060000  1
  C  C95  1  0.50210000  0.60140000  0.79380000  1
  C  C96  1  0.49950000  0.40440000  0.69160000  1
  C  C97  1  0.50690000  0.72890000  0.86170000  1
  C  C98  1  0.54190000  0.43800000  0.66940000  1
  C  C99  1  0.50180000  0.53250000  0.75910000  1
  C  C100  1  0.50460000  0.79610000  0.89850000  1
  C  C101  1  0.55540000  0.63470000  0.78470000  1
  C  C102  1  0.46540000  0.49810000  0.78190000  1
  C  C103  1  0.46150000  0.43450000  0.74590000  1
  C  C104  1  0.53740000  0.50220000  0.70400000  1
  C  C105  1  0.44100000  0.69590000  0.86510000  1
  C  C106  1  0.55280000  0.28520000  0.77060000  1
  C  C107  1  0.54750000  0.32190000  0.74190000  1
  C  C108  1  0.44040000  0.63340000  0.83440000  1
  C  C109  1  0.54260000  0.19070000  0.88030000  1
  C  C110  1  0.55030000  0.21900000  0.84060000  1
  C  C111  1  0.71550000  0.00800000  0.89580000  1
  C  C112  1  0.80630000  0.01370000  0.86770000  1
  C  C113  1  0.50000000  0.30720000  0.69280000  1
  C  C114  1  0.50000000  0.24110000  0.75890000  1
  C  C115  1  0.50000000  0.13950000  0.86050000  1
  C  C116  1  0.50000000  0.10470000  0.89530000  1
  C  C117  1  0.50000000  0.20630000  0.79370000  1
  C  C118  1  0.06720000  0.80180000  0.67940000  1
  C  C119  1  0.00210000  0.89860000  0.70620000  1
  C  C120  1  0.99950000  0.09560000  0.80840000  1
  C  C121  1  0.00690000  0.77110000  0.63830000  1
  C  C122  1  0.04190000  0.06200000  0.83060000  1
  C  C123  1  0.00180000  0.96750000  0.74090000  1
  C  C124  1  0.00460000  0.70390000  0.60150000  1
  C  C125  1  0.05540000  0.86530000  0.71530000  1
  C  C126  1  0.96540000  0.00190000  0.71810000  1
  C  C127  1  0.96150000  0.06550000  0.75410000  1
  C  C128  1  0.03740000  0.99780000  0.79600000  1
  C  C129  1  0.94100000  0.80410000  0.63490000  1
  C  C130  1  0.05280000  0.21480000  0.72940000  1
  C  C131  1  0.04750000  0.17810000  0.75810000  1
  C  C132  1  0.94040000  0.86660000  0.66560000  1
  C  C133  1  0.04260000  0.30930000  0.61970000  1
  C  C134  1  0.05030000  0.28100000  0.65940000  1
  C  C135  1  0.21550000  0.49200000  0.60420000  1
  C  C136  1  0.30630000  0.48630000  0.63230000  1
  C  C137  1  0.00000000  0.19280000  0.80720000  1
  C  C138  1  0.00000000  0.25890000  0.74110000  1
  C  C139  1  0.00000000  0.36050000  0.63950000  1
  C  C140  1  0.00000000  0.39530000  0.60470000  1
  C  C141  1  0.00000000  0.29370000  0.70630000  1
  C  C142  1  0.43280000  0.17940000  0.30180000  1
  C  C143  1  0.49790000  0.20620000  0.39860000  1
  C  C144  1  0.50050000  0.30840000  0.59560000  1
  C  C145  1  0.49310000  0.13830000  0.27110000  1
  C  C146  1  0.45810000  0.33060000  0.56200000  1
  C  C147  1  0.49820000  0.24090000  0.46750000  1
  C  C148  1  0.49540000  0.10150000  0.20390000  1
  C  C149  1  0.44460000  0.21530000  0.36530000  1
  C  C150  1  0.53460000  0.21810000  0.50190000  1
  C  C151  1  0.53850000  0.25410000  0.56550000  1
  C  C152  1  0.46260000  0.29600000  0.49780000  1
  C  C153  1  0.55900000  0.13490000  0.30410000  1
  C  C154  1  0.44720000  0.22940000  0.71480000  1
  C  C155  1  0.45250000  0.25810000  0.67810000  1
  C  C156  1  0.55960000  0.16560000  0.36660000  1
  C  C157  1  0.45740000  0.11970000  0.80930000  1
  C  C158  1  0.44970000  0.15940000  0.78100000  1
  C  C159  1  0.28450000  0.10420000  0.99200000  1
  C  C160  1  0.19370000  0.13230000  0.98630000  1
  C  C161  1  0.93280000  0.32060000  0.19820000  1
  C  C162  1  0.99790000  0.29380000  0.10140000  1
  C  C163  1  0.00050000  0.19160000  0.90440000  1
  C  C164  1  0.99310000  0.36170000  0.22890000  1
  C  C165  1  0.95810000  0.16940000  0.93800000  1
  C  C166  1  0.99820000  0.25910000  0.03250000  1
  C  C167  1  0.99540000  0.39850000  0.29610000  1
  C  C168  1  0.94460000  0.28470000  0.13470000  1
  C  C169  1  0.03460000  0.28190000  0.99810000  1
  C  C170  1  0.03850000  0.24590000  0.93450000  1
  C  C171  1  0.96260000  0.20400000  0.00220000  1
  C  C172  1  0.05900000  0.36510000  0.19590000  1
  C  C173  1  0.94720000  0.27060000  0.78520000  1
  C  C174  1  0.95250000  0.24190000  0.82190000  1
  C  C175  1  0.05960000  0.33440000  0.13340000  1
  C  C176  1  0.95740000  0.38030000  0.69070000  1
  C  C177  1  0.94970000  0.34060000  0.71900000  1
  C  C178  1  0.78450000  0.39580000  0.50800000  1
  C  C179  1  0.69370000  0.36770000  0.51370000  1
  F  F180  1  0.80060000  0.18900000  0.14380000  1
  F  F181  1  0.20170000  0.94050000  0.13910000  1
  F  F182  1  0.18070000  0.03200000  0.17100000  1
  F  F183  1  0.14940000  0.98460000  0.10360000  1
  F  F184  1  0.85090000  0.09670000  0.09670000  1
  F  F185  1  0.30060000  0.31100000  0.35620000  1
  F  F186  1  0.70170000  0.55950000  0.36090000  1
  F  F187  1  0.68070000  0.46800000  0.32900000  1
  F  F188  1  0.64940000  0.51540000  0.39640000  1
  F  F189  1  0.35090000  0.40330000  0.40330000  1
  F  F190  1  0.19940000  0.85620000  0.81100000  1
  F  F191  1  0.79830000  0.86090000  0.05950000  1
  F  F192  1  0.81930000  0.82900000  0.96800000  1
  F  F193  1  0.85060000  0.89640000  0.01540000  1
  F  F194  1  0.14910000  0.90330000  0.90330000  1
  F  F195  1  0.69940000  0.64380000  0.68900000  1
  F  F196  1  0.29830000  0.63910000  0.44050000  1
  F  F197  1  0.31930000  0.67100000  0.53200000  1
  F  F198  1  0.35060000  0.60360000  0.48460000  1
  F  F199  1  0.64910000  0.59670000  0.59670000  1
  F  F200  1  0.19940000  0.81100000  0.85620000  1
  F  F201  1  0.79830000  0.05950000  0.86090000  1
  F  F202  1  0.81930000  0.96800000  0.82900000  1
  F  F203  1  0.85060000  0.01540000  0.89640000  1
  F  F204  1  0.69940000  0.68900000  0.64380000  1
  F  F205  1  0.29830000  0.44050000  0.63910000  1
  F  F206  1  0.31930000  0.53200000  0.67100000  1
  F  F207  1  0.35060000  0.48460000  0.60360000  1
  F  F208  1  0.80060000  0.14380000  0.18900000  1
  F  F209  1  0.20170000  0.13910000  0.94050000  1
  F  F210  1  0.18070000  0.17100000  0.03200000  1
  F  F211  1  0.14940000  0.10360000  0.98460000  1
  F  F212  1  0.30060000  0.35620000  0.31100000  1
  F  F213  1  0.70170000  0.36090000  0.55950000  1
  F  F214  1  0.68070000  0.32900000  0.46800000  1
  F  F215  1  0.64940000  0.39640000  0.51540000  1
  H  H216  1  0.38770000  0.28200000  0.18300000  1
  H  H217  1  0.42840000  0.58090000  0.36650000  1
  H  H218  1  0.41120000  0.38550000  0.24890000  1
  H  H219  1  0.55650000  0.48330000  0.17910000  1
  H  H220  1  0.56850000  0.58790000  0.24010000  1
  H  H221  1  0.43940000  0.47460000  0.31240000  1
  H  H222  1  0.60270000  0.28310000  0.11130000  1
  H  H223  1  0.40630000  0.70840000  0.20180000  1
  H  H224  1  0.42250000  0.64250000  0.24310000  1
  H  H225  1  0.60110000  0.38790000  0.15950000  1
  H  H226  1  0.43310000  0.79210000  0.08150000  1
  H  H227  1  0.40870000  0.75330000  0.15210000  1
  H  H228  1  0.88770000  0.21800000  0.31700000  1
  H  H229  1  0.92840000  0.91910000  0.13350000  1
  H  H230  1  0.91120000  0.11450000  0.25110000  1
  H  H231  1  0.05650000  0.01670000  0.32090000  1
  H  H232  1  0.06850000  0.91210000  0.25990000  1
  H  H233  1  0.93940000  0.02540000  0.18760000  1
  H  H234  1  0.10270000  0.21690000  0.38870000  1
  H  H235  1  0.90630000  0.79160000  0.29820000  1
  H  H236  1  0.92250000  0.85750000  0.25690000  1
  H  H237  1  0.10110000  0.11210000  0.34050000  1
  H  H238  1  0.93310000  0.70790000  0.41850000  1
  H  H239  1  0.90870000  0.74670000  0.34790000  1
  H  H240  1  0.61230000  0.81700000  0.71800000  1
  H  H241  1  0.57160000  0.63350000  0.41910000  1
  H  H242  1  0.58880000  0.75110000  0.61450000  1
  H  H243  1  0.44350000  0.82090000  0.51670000  1
  H  H244  1  0.43150000  0.75990000  0.41210000  1
  H  H245  1  0.56060000  0.68760000  0.52540000  1
  H  H246  1  0.39730000  0.88870000  0.71690000  1
  H  H247  1  0.59370000  0.79820000  0.29160000  1
  H  H248  1  0.57750000  0.75690000  0.35750000  1
  H  H249  1  0.39890000  0.84050000  0.61210000  1
  H  H250  1  0.56690000  0.91850000  0.20790000  1
  H  H251  1  0.59130000  0.84790000  0.24670000  1
  H  H252  1  0.11230000  0.68300000  0.78200000  1
  H  H253  1  0.07160000  0.86650000  0.08090000  1
  H  H254  1  0.08880000  0.74890000  0.88550000  1
  H  H255  1  0.94350000  0.67910000  0.98330000  1
  H  H256  1  0.93150000  0.74010000  0.08790000  1
  H  H257  1  0.06060000  0.81240000  0.97460000  1
  H  H258  1  0.89730000  0.61130000  0.78310000  1
  H  H259  1  0.09370000  0.70180000  0.20840000  1
  H  H260  1  0.07750000  0.74310000  0.14250000  1
  H  H261  1  0.89890000  0.65950000  0.88790000  1
  H  H262  1  0.06690000  0.58150000  0.29210000  1
  H  H263  1  0.09130000  0.65210000  0.25330000  1
  H  H264  1  0.61230000  0.71800000  0.81700000  1
  H  H265  1  0.57160000  0.41910000  0.63350000  1
  H  H266  1  0.58880000  0.61450000  0.75110000  1
  H  H267  1  0.44350000  0.51670000  0.82090000  1
  H  H268  1  0.43150000  0.41210000  0.75990000  1
  H  H269  1  0.56060000  0.52540000  0.68760000  1
  H  H270  1  0.39730000  0.71690000  0.88870000  1
  H  H271  1  0.59370000  0.29160000  0.79820000  1
  H  H272  1  0.57750000  0.35750000  0.75690000  1
  H  H273  1  0.39890000  0.61210000  0.84050000  1
  H  H274  1  0.56690000  0.20790000  0.91850000  1
  H  H275  1  0.59130000  0.24670000  0.84790000  1
  H  H276  1  0.11230000  0.78200000  0.68300000  1
  H  H277  1  0.07160000  0.08090000  0.86650000  1
  H  H278  1  0.08880000  0.88550000  0.74890000  1
  H  H279  1  0.94350000  0.98330000  0.67910000  1
  H  H280  1  0.93150000  0.08790000  0.74010000  1
  H  H281  1  0.06060000  0.97460000  0.81240000  1
  H  H282  1  0.89730000  0.78310000  0.61130000  1
  H  H283  1  0.09370000  0.20840000  0.70180000  1
  H  H284  1  0.07750000  0.14250000  0.74310000  1
  H  H285  1  0.89890000  0.88790000  0.65950000  1
  H  H286  1  0.06690000  0.29210000  0.58150000  1
  H  H287  1  0.09130000  0.25330000  0.65210000  1
  H  H288  1  0.38770000  0.18300000  0.28200000  1
  H  H289  1  0.42840000  0.36650000  0.58090000  1
  H  H290  1  0.41120000  0.24890000  0.38550000  1
  H  H291  1  0.55650000  0.17910000  0.48330000  1
  H  H292  1  0.56850000  0.24010000  0.58790000  1
  H  H293  1  0.43940000  0.31240000  0.47460000  1
  H  H294  1  0.60270000  0.11130000  0.28310000  1
  H  H295  1  0.40630000  0.20180000  0.70840000  1
  H  H296  1  0.42250000  0.24310000  0.64250000  1
  H  H297  1  0.60110000  0.15950000  0.38790000  1
  H  H298  1  0.43310000  0.08150000  0.79210000  1
  H  H299  1  0.40870000  0.15210000  0.75330000  1
  H  H300  1  0.88770000  0.31700000  0.21800000  1
  H  H301  1  0.92840000  0.13350000  0.91910000  1
  H  H302  1  0.91120000  0.25110000  0.11450000  1
  H  H303  1  0.05650000  0.32090000  0.01670000  1
  H  H304  1  0.06850000  0.25990000  0.91210000  1
  H  H305  1  0.93940000  0.18760000  0.02540000  1
  H  H306  1  0.10270000  0.38870000  0.21690000  1
  H  H307  1  0.90630000  0.29820000  0.79160000  1
  H  H308  1  0.92250000  0.25690000  0.85750000  1
  H  H309  1  0.10110000  0.34050000  0.11210000  1
  H  H310  1  0.93310000  0.41850000  0.70790000  1
  H  H311  1  0.90870000  0.34790000  0.74670000  1
  N  N312  1  0.50000000  0.65930000  0.34070000  1
  N  N313  1  0.00000000  0.84070000  0.15930000  1
  N  N314  1  0.50000000  0.34070000  0.65930000  1
  N  N315  1  0.00000000  0.15930000  0.84070000  1
  O  O316  1  0.43940000  0.17691000  0.11249000  1
  O  O317  1  0.54860000  0.17951000  0.06249000  1
  O  O318  1  0.55140000  0.93703000  0.12057000  1
  O  O319  1  0.68430000  0.06540000  0.11960000  1
  O  O320  1  0.45680000  0.99817000  0.07863000  1
  O  O321  1  0.31190000  0.93016000  0.05604000  1
  O  O322  1  0.30700000  0.05860000  0.11740000  1
  O  O323  1  0.63260000  0.00270000  0.00270000  1
  O  O324  1  0.53750000  0.08020000  0.08020000  1
  O  O325  1  0.93940000  0.32309000  0.38751000  1
  O  O326  1  0.04860000  0.32049000  0.43751000  1
  O  O327  1  0.05140000  0.56297000  0.37943000  1
  O  O328  1  0.18430000  0.43460000  0.38040000  1
  O  O329  1  0.95680000  0.50183000  0.42137000  1
  O  O330  1  0.81190000  0.56984000  0.44396000  1
  O  O331  1  0.80700000  0.44140000  0.38260000  1
  O  O332  1  0.13260000  0.49730000  0.49730000  1
  O  O333  1  0.03750000  0.41980000  0.41980000  1
  O  O334  1  0.56060000  0.88751000  0.82309000  1
  O  O335  1  0.45140000  0.93751000  0.82049000  1
  O  O336  1  0.44860000  0.87943000  0.06297000  1
  O  O337  1  0.31570000  0.88040000  0.93460000  1
  O  O338  1  0.54320000  0.92137000  0.00183000  1
  O  O339  1  0.68810000  0.94396000  0.06984000  1
  O  O340  1  0.69300000  0.88260000  0.94140000  1
  O  O341  1  0.36740000  0.99730000  0.99730000  1
  O  O342  1  0.46250000  0.91980000  0.91980000  1
  O  O343  1  0.06060000  0.61249000  0.67691000  1
  O  O344  1  0.95140000  0.56249000  0.67951000  1
  O  O345  1  0.94860000  0.62057000  0.43703000  1
  O  O346  1  0.81570000  0.61960000  0.56540000  1
  O  O347  1  0.04320000  0.57863000  0.49817000  1
  O  O348  1  0.18810000  0.55604000  0.43016000  1
  O  O349  1  0.19300000  0.61740000  0.55860000  1
  O  O350  1  0.86740000  0.50270000  0.50270000  1
  O  O351  1  0.96250000  0.58020000  0.58020000  1
  O  O352  1  0.56060000  0.82309000  0.88751000  1
  O  O353  1  0.45140000  0.82049000  0.93751000  1
  O  O354  1  0.44860000  0.06297000  0.87943000  1
  O  O355  1  0.31570000  0.93460000  0.88040000  1
  O  O356  1  0.54320000  0.00183000  0.92137000  1
  O  O357  1  0.68810000  0.06984000  0.94396000  1
  O  O358  1  0.69300000  0.94140000  0.88260000  1
  O  O359  1  0.06060000  0.67691000  0.61249000  1
  O  O360  1  0.95140000  0.67951000  0.56249000  1
  O  O361  1  0.94860000  0.43703000  0.62057000  1
  O  O362  1  0.81570000  0.56540000  0.61960000  1
  O  O363  1  0.04320000  0.49817000  0.57863000  1
  O  O364  1  0.18810000  0.43016000  0.55604000  1
  O  O365  1  0.19300000  0.55860000  0.61740000  1
  O  O366  1  0.43940000  0.11249000  0.17691000  1
  O  O367  1  0.54860000  0.06249000  0.17951000  1
  O  O368  1  0.55140000  0.12057000  0.93703000  1
  O  O369  1  0.68430000  0.11960000  0.06540000  1
  O  O370  1  0.45680000  0.07863000  0.99817000  1
  O  O371  1  0.31190000  0.05604000  0.93016000  1
  O  O372  1  0.30700000  0.11740000  0.05860000  1
  O  O373  1  0.93940000  0.38751000  0.32309000  1
  O  O374  1  0.04860000  0.43751000  0.32049000  1
  O  O375  1  0.05140000  0.37943000  0.56297000  1
  O  O376  1  0.18430000  0.38040000  0.43460000  1
  O  O377  1  0.95680000  0.42137000  0.50183000  1
  O  O378  1  0.81190000  0.44396000  0.56984000  1
  O  O379  1  0.80700000  0.38260000  0.44140000  1
  Zr  Zr380  1  0.58270000  0.00022000  0.08284000  1
  Zr  Zr381  1  0.41179000  0.07801000  0.07801000  1
  Zr  Zr382  1  0.08270000  0.49978000  0.41716000  1
  Zr  Zr383  1  0.91179000  0.42199000  0.42199000  1
  Zr  Zr384  1  0.41730000  0.91716000  0.99978000  1
  Zr  Zr385  1  0.58821000  0.92199000  0.92199000  1
  Zr  Zr386  1  0.91730000  0.58284000  0.50022000  1
  Zr  Zr387  1  0.08821000  0.57801000  0.57801000  1
  Zr  Zr388  1  0.41730000  0.99978000  0.91716000  1
  Zr  Zr389  1  0.91730000  0.50022000  0.58284000  1
  Zr  Zr390  1  0.58270000  0.08284000  0.00022000  1
  Zr  Zr391  1  0.08270000  0.41716000  0.49978000  1
