# generated using pymatgen
data_Zr6H51C72SO31
_symmetry_space_group_name_H-M   'P 1'
_cell_length_a   14.85600000
_cell_length_b   24.10400000
_cell_length_c   24.10400000
_cell_angle_alpha   90.00000000
_cell_angle_beta   90.00000000
_cell_angle_gamma   90.00000000
_symmetry_Int_Tables_number   1
_chemical_formula_structural   Zr6H51C72SO31
_chemical_formula_sum   'Zr12 H102 C144 S2 O62'
_cell_volume   8631.37783450
_cell_formula_units_Z   2
loop_
 _symmetry_equiv_pos_site_id
 _symmetry_equiv_pos_as_xyz
  1  'x, y, z'
loop_
 _atom_site_type_symbol
 _atom_site_label
 _atom_site_symmetry_multiplicity
 _atom_site_fract_x
 _atom_site_fract_y
 _atom_site_fract_z
 _atom_site_occupancy
  Zr  Zr0  1  0.00000000  0.50000000  0.10163000  1
  Zr  Zr1  1  0.00000000  0.50000000  0.89837000  1
  Zr  Zr2  1  0.50000000  0.89837000  0.50000000  1
  Zr  Zr3  1  0.50000000  0.10163000  0.50000000  1
  Zr  Zr4  1  0.11733000  0.42783000  0.00000000  1
  Zr  Zr5  1  0.11733000  0.57217000  0.00000000  1
  Zr  Zr6  1  0.61733000  0.00000000  0.42783000  1
  Zr  Zr7  1  0.61733000  0.00000000  0.57217000  1
  Zr  Zr8  1  0.88267000  0.57217000  0.00000000  1
  Zr  Zr9  1  0.88267000  0.42783000  0.00000000  1
  Zr  Zr10  1  0.38267000  0.00000000  0.42783000  1
  Zr  Zr11  1  0.38267000  0.00000000  0.57217000  1
  H  H12  1  0.09760000  0.39790000  0.23490000  1
  H  H13  1  0.26630000  0.32830000  0.12470000  1
  H  H14  1  0.30180000  0.25810000  0.19170000  1
  H  H15  1  0.16330000  0.35170000  0.35310000  1
  H  H16  1  0.09670000  0.30340000  0.33850000  1
  H  H17  1  0.07070000  0.36500000  0.32490000  1
  H  H18  1  0.09760000  0.60210000  0.76510000  1
  H  H19  1  0.26630000  0.67170000  0.87530000  1
  H  H20  1  0.30180000  0.74190000  0.80830000  1
  H  H21  1  0.16330000  0.64830000  0.64690000  1
  H  H22  1  0.09670000  0.69660000  0.66150000  1
  H  H23  1  0.07070000  0.63500000  0.67510000  1
  H  H24  1  0.59760000  0.76510000  0.39790000  1
  H  H25  1  0.76630000  0.87530000  0.32830000  1
  H  H26  1  0.80180000  0.80830000  0.25810000  1
  H  H27  1  0.66330000  0.64690000  0.35170000  1
  H  H28  1  0.59670000  0.66150000  0.30340000  1
  H  H29  1  0.57070000  0.67510000  0.36500000  1
  H  H30  1  0.59760000  0.23490000  0.60210000  1
  H  H31  1  0.76630000  0.12470000  0.67170000  1
  H  H32  1  0.80180000  0.19170000  0.74190000  1
  H  H33  1  0.66330000  0.35310000  0.64830000  1
  H  H34  1  0.59670000  0.33850000  0.69660000  1
  H  H35  1  0.57070000  0.32490000  0.63500000  1
  H  H36  1  0.90240000  0.60210000  0.23490000  1
  H  H37  1  0.73370000  0.67170000  0.12470000  1
  H  H38  1  0.69820000  0.74190000  0.19170000  1
  H  H39  1  0.83670000  0.64830000  0.35310000  1
  H  H40  1  0.90330000  0.69660000  0.33850000  1
  H  H41  1  0.92930000  0.63500000  0.32490000  1
  H  H42  1  0.90240000  0.39790000  0.76510000  1
  H  H43  1  0.73370000  0.32830000  0.87530000  1
  H  H44  1  0.69820000  0.25810000  0.80830000  1
  H  H45  1  0.83670000  0.35170000  0.64690000  1
  H  H46  1  0.90330000  0.30340000  0.66150000  1
  H  H47  1  0.92930000  0.36500000  0.67510000  1
  H  H48  1  0.40240000  0.23490000  0.39790000  1
  H  H49  1  0.23370000  0.12470000  0.32830000  1
  H  H50  1  0.19820000  0.19170000  0.25810000  1
  H  H51  1  0.33670000  0.35310000  0.35170000  1
  H  H52  1  0.40330000  0.33850000  0.30340000  1
  H  H53  1  0.42930000  0.32490000  0.36500000  1
  H  H54  1  0.40240000  0.76510000  0.60210000  1
  H  H55  1  0.23370000  0.87530000  0.67170000  1
  H  H56  1  0.19820000  0.80830000  0.74190000  1
  H  H57  1  0.33670000  0.64690000  0.64830000  1
  H  H58  1  0.40330000  0.66150000  0.69660000  1
  H  H59  1  0.42930000  0.67510000  0.63500000  1
  H  H60  1  0.90240000  0.60210000  0.76510000  1
  H  H61  1  0.73370000  0.67170000  0.87530000  1
  H  H62  1  0.69820000  0.74190000  0.80830000  1
  H  H63  1  0.83670000  0.64830000  0.64690000  1
  H  H64  1  0.90330000  0.69660000  0.66150000  1
  H  H65  1  0.92930000  0.63500000  0.67510000  1
  H  H66  1  0.90240000  0.39790000  0.23490000  1
  H  H67  1  0.73370000  0.32830000  0.12470000  1
  H  H68  1  0.69820000  0.25810000  0.19170000  1
  H  H69  1  0.83670000  0.35170000  0.35310000  1
  H  H70  1  0.90330000  0.30340000  0.33850000  1
  H  H71  1  0.92930000  0.36500000  0.32490000  1
  H  H72  1  0.40240000  0.23490000  0.60210000  1
  H  H73  1  0.23370000  0.12470000  0.67170000  1
  H  H74  1  0.19820000  0.19170000  0.74190000  1
  H  H75  1  0.33670000  0.35310000  0.64830000  1
  H  H76  1  0.40330000  0.33850000  0.69660000  1
  H  H77  1  0.42930000  0.32490000  0.63500000  1
  H  H78  1  0.40240000  0.76510000  0.39790000  1
  H  H79  1  0.23370000  0.87530000  0.32830000  1
  H  H80  1  0.19820000  0.80830000  0.25810000  1
  H  H81  1  0.33670000  0.64690000  0.35170000  1
  H  H82  1  0.40330000  0.66150000  0.30340000  1
  H  H83  1  0.42930000  0.67510000  0.36500000  1
  H  H84  1  0.09760000  0.39790000  0.76510000  1
  H  H85  1  0.26630000  0.32830000  0.87530000  1
  H  H86  1  0.30180000  0.25810000  0.80830000  1
  H  H87  1  0.16330000  0.35170000  0.64690000  1
  H  H88  1  0.09670000  0.30340000  0.66150000  1
  H  H89  1  0.07070000  0.36500000  0.67510000  1
  H  H90  1  0.09760000  0.60210000  0.23490000  1
  H  H91  1  0.26630000  0.67170000  0.12470000  1
  H  H92  1  0.30180000  0.74190000  0.19170000  1
  H  H93  1  0.16330000  0.64830000  0.35310000  1
  H  H94  1  0.09670000  0.69660000  0.33850000  1
  H  H95  1  0.07070000  0.63500000  0.32490000  1
  H  H96  1  0.59760000  0.76510000  0.60210000  1
  H  H97  1  0.76630000  0.87530000  0.67170000  1
  H  H98  1  0.80180000  0.80830000  0.74190000  1
  H  H99  1  0.66330000  0.64690000  0.64830000  1
  H  H100  1  0.59670000  0.66150000  0.69660000  1
  H  H101  1  0.57070000  0.67510000  0.63500000  1
  H  H102  1  0.59760000  0.23490000  0.39790000  1
  H  H103  1  0.76630000  0.12470000  0.32830000  1
  H  H104  1  0.80180000  0.19170000  0.25810000  1
  H  H105  1  0.66330000  0.35310000  0.35170000  1
  H  H106  1  0.59670000  0.33850000  0.30340000  1
  H  H107  1  0.57070000  0.32490000  0.36500000  1
  H  H108  1  0.41441000  0.50000000  0.09094000  1
  H  H109  1  0.58559000  0.50000000  0.09094000  1
  H  H110  1  0.41441000  0.50000000  0.90906000  1
  H  H111  1  0.91441000  0.90906000  0.50000000  1
  H  H112  1  0.91441000  0.09094000  0.50000000  1
  H  H113  1  0.08559000  0.09094000  0.50000000  1
  C  C114  1  0.14220000  0.40650000  0.13220000  1
  C  C115  1  0.17610000  0.36910000  0.17360000  1
  C  C116  1  0.14000000  0.37090000  0.22610000  1
  C  C117  1  0.23990000  0.32870000  0.15970000  1
  C  C118  1  0.16600000  0.33290000  0.26590000  1
  C  C119  1  0.26410000  0.28750000  0.20090000  1
  C  C120  1  0.11940000  0.33890000  0.32690000  1
  C  C121  1  0.23120000  0.29260000  0.25280000  1
  C  C122  1  0.14220000  0.59350000  0.86780000  1
  C  C123  1  0.17610000  0.63090000  0.82640000  1
  C  C124  1  0.14000000  0.62910000  0.77390000  1
  C  C125  1  0.23990000  0.67130000  0.84030000  1
  C  C126  1  0.16600000  0.66710000  0.73410000  1
  C  C127  1  0.26410000  0.71250000  0.79910000  1
  C  C128  1  0.11940000  0.66110000  0.67310000  1
  C  C129  1  0.23120000  0.70740000  0.74720000  1
  C  C130  1  0.64220000  0.86780000  0.40650000  1
  C  C131  1  0.67610000  0.82640000  0.36910000  1
  C  C132  1  0.64000000  0.77390000  0.37090000  1
  C  C133  1  0.73990000  0.84030000  0.32870000  1
  C  C134  1  0.66600000  0.73410000  0.33290000  1
  C  C135  1  0.76410000  0.79910000  0.28750000  1
  C  C136  1  0.61940000  0.67310000  0.33890000  1
  C  C137  1  0.73120000  0.74720000  0.29260000  1
  C  C138  1  0.64220000  0.13220000  0.59350000  1
  C  C139  1  0.67610000  0.17360000  0.63090000  1
  C  C140  1  0.64000000  0.22610000  0.62910000  1
  C  C141  1  0.73990000  0.15970000  0.67130000  1
  C  C142  1  0.66600000  0.26590000  0.66710000  1
  C  C143  1  0.76410000  0.20090000  0.71250000  1
  C  C144  1  0.61940000  0.32690000  0.66110000  1
  C  C145  1  0.73120000  0.25280000  0.70740000  1
  C  C146  1  0.85780000  0.59350000  0.13220000  1
  C  C147  1  0.82390000  0.63090000  0.17360000  1
  C  C148  1  0.86000000  0.62910000  0.22610000  1
  C  C149  1  0.76010000  0.67130000  0.15970000  1
  C  C150  1  0.83400000  0.66710000  0.26590000  1
  C  C151  1  0.73590000  0.71250000  0.20090000  1
  C  C152  1  0.88060000  0.66110000  0.32690000  1
  C  C153  1  0.76880000  0.70740000  0.25280000  1
  C  C154  1  0.85780000  0.40650000  0.86780000  1
  C  C155  1  0.82390000  0.36910000  0.82640000  1
  C  C156  1  0.86000000  0.37090000  0.77390000  1
  C  C157  1  0.76010000  0.32870000  0.84030000  1
  C  C158  1  0.83400000  0.33290000  0.73410000  1
  C  C159  1  0.73590000  0.28750000  0.79910000  1
  C  C160  1  0.88060000  0.33890000  0.67310000  1
  C  C161  1  0.76880000  0.29260000  0.74720000  1
  C  C162  1  0.35780000  0.13220000  0.40650000  1
  C  C163  1  0.32390000  0.17360000  0.36910000  1
  C  C164  1  0.36000000  0.22610000  0.37090000  1
  C  C165  1  0.26010000  0.15970000  0.32870000  1
  C  C166  1  0.33400000  0.26590000  0.33290000  1
  C  C167  1  0.23590000  0.20090000  0.28750000  1
  C  C168  1  0.38060000  0.32690000  0.33890000  1
  C  C169  1  0.26880000  0.25280000  0.29260000  1
  C  C170  1  0.35780000  0.86780000  0.59350000  1
  C  C171  1  0.32390000  0.82640000  0.63090000  1
  C  C172  1  0.36000000  0.77390000  0.62910000  1
  C  C173  1  0.26010000  0.84030000  0.67130000  1
  C  C174  1  0.33400000  0.73410000  0.66710000  1
  C  C175  1  0.23590000  0.79910000  0.71250000  1
  C  C176  1  0.38060000  0.67310000  0.66110000  1
  C  C177  1  0.26880000  0.74720000  0.70740000  1
  C  C178  1  0.85780000  0.59350000  0.86780000  1
  C  C179  1  0.82390000  0.63090000  0.82640000  1
  C  C180  1  0.86000000  0.62910000  0.77390000  1
  C  C181  1  0.76010000  0.67130000  0.84030000  1
  C  C182  1  0.83400000  0.66710000  0.73410000  1
  C  C183  1  0.73590000  0.71250000  0.79910000  1
  C  C184  1  0.88060000  0.66110000  0.67310000  1
  C  C185  1  0.76880000  0.70740000  0.74720000  1
  C  C186  1  0.85780000  0.40650000  0.13220000  1
  C  C187  1  0.82390000  0.36910000  0.17360000  1
  C  C188  1  0.86000000  0.37090000  0.22610000  1
  C  C189  1  0.76010000  0.32870000  0.15970000  1
  C  C190  1  0.83400000  0.33290000  0.26590000  1
  C  C191  1  0.73590000  0.28750000  0.20090000  1
  C  C192  1  0.88060000  0.33890000  0.32690000  1
  C  C193  1  0.76880000  0.29260000  0.25280000  1
  C  C194  1  0.35780000  0.13220000  0.59350000  1
  C  C195  1  0.32390000  0.17360000  0.63090000  1
  C  C196  1  0.36000000  0.22610000  0.62910000  1
  C  C197  1  0.26010000  0.15970000  0.67130000  1
  C  C198  1  0.33400000  0.26590000  0.66710000  1
  C  C199  1  0.23590000  0.20090000  0.71250000  1
  C  C200  1  0.38060000  0.32690000  0.66110000  1
  C  C201  1  0.26880000  0.25280000  0.70740000  1
  C  C202  1  0.35780000  0.86780000  0.40650000  1
  C  C203  1  0.32390000  0.82640000  0.36910000  1
  C  C204  1  0.36000000  0.77390000  0.37090000  1
  C  C205  1  0.26010000  0.84030000  0.32870000  1
  C  C206  1  0.33400000  0.73410000  0.33290000  1
  C  C207  1  0.23590000  0.79910000  0.28750000  1
  C  C208  1  0.38060000  0.67310000  0.33890000  1
  C  C209  1  0.26880000  0.74720000  0.29260000  1
  C  C210  1  0.14220000  0.40650000  0.86780000  1
  C  C211  1  0.17610000  0.36910000  0.82640000  1
  C  C212  1  0.14000000  0.37090000  0.77390000  1
  C  C213  1  0.23990000  0.32870000  0.84030000  1
  C  C214  1  0.16600000  0.33290000  0.73410000  1
  C  C215  1  0.26410000  0.28750000  0.79910000  1
  C  C216  1  0.11940000  0.33890000  0.67310000  1
  C  C217  1  0.23120000  0.29260000  0.74720000  1
  C  C218  1  0.14220000  0.59350000  0.13220000  1
  C  C219  1  0.17610000  0.63090000  0.17360000  1
  C  C220  1  0.14000000  0.62910000  0.22610000  1
  C  C221  1  0.23990000  0.67130000  0.15970000  1
  C  C222  1  0.16600000  0.66710000  0.26590000  1
  C  C223  1  0.26410000  0.71250000  0.20090000  1
  C  C224  1  0.11940000  0.66110000  0.32690000  1
  C  C225  1  0.23120000  0.70740000  0.25280000  1
  C  C226  1  0.64220000  0.86780000  0.59350000  1
  C  C227  1  0.67610000  0.82640000  0.63090000  1
  C  C228  1  0.64000000  0.77390000  0.62910000  1
  C  C229  1  0.73990000  0.84030000  0.67130000  1
  C  C230  1  0.66600000  0.73410000  0.66710000  1
  C  C231  1  0.76410000  0.79910000  0.71250000  1
  C  C232  1  0.61940000  0.67310000  0.66110000  1
  C  C233  1  0.73120000  0.74720000  0.70740000  1
  C  C234  1  0.64220000  0.13220000  0.40650000  1
  C  C235  1  0.67610000  0.17360000  0.36910000  1
  C  C236  1  0.64000000  0.22610000  0.37090000  1
  C  C237  1  0.73990000  0.15970000  0.32870000  1
  C  C238  1  0.66600000  0.26590000  0.33290000  1
  C  C239  1  0.76410000  0.20090000  0.28750000  1
  C  C240  1  0.61940000  0.32690000  0.33890000  1
  C  C241  1  0.73120000  0.25280000  0.29260000  1
  C  C242  1  0.45310000  0.50000000  0.94990000  1
  C  C243  1  0.45310000  0.50000000  0.05010000  1
  C  C244  1  0.95310000  0.05010000  0.50000000  1
  C  C245  1  0.95310000  0.94990000  0.50000000  1
  C  C246  1  0.54690000  0.50000000  0.94990000  1
  C  C247  1  0.54690000  0.50000000  0.05010000  1
  C  C248  1  0.04690000  0.94990000  0.50000000  1
  C  C249  1  0.04690000  0.05010000  0.50000000  1
  C  C250  1  0.30290000  0.50000000  0.00000000  1
  C  C251  1  0.40670000  0.50000000  0.00000000  1
  C  C252  1  0.80290000  0.00000000  0.50000000  1
  C  C253  1  0.90670000  0.00000000  0.50000000  1
  C  C254  1  0.69710000  0.50000000  0.00000000  1
  C  C255  1  0.59330000  0.50000000  0.00000000  1
  C  C256  1  0.19710000  0.00000000  0.50000000  1
  C  C257  1  0.09330000  0.00000000  0.50000000  1
  S  S258  1  0.60000000  0.50000000  0.88130000  1
  S  S259  1  0.10000000  0.88130000  0.50000000  1
  O  O260  1  0.08860000  0.44540000  0.14900000  1
  O  O261  1  0.16640000  0.39560000  0.08170000  1
  O  O262  1  0.08860000  0.55460000  0.85100000  1
  O  O263  1  0.16640000  0.60440000  0.91830000  1
  O  O264  1  0.58860000  0.85100000  0.44540000  1
  O  O265  1  0.66640000  0.91830000  0.39560000  1
  O  O266  1  0.58860000  0.14900000  0.55460000  1
  O  O267  1  0.66640000  0.08170000  0.60440000  1
  O  O268  1  0.91140000  0.55460000  0.14900000  1
  O  O269  1  0.83360000  0.60440000  0.08170000  1
  O  O270  1  0.56700000  0.54562000  0.85200000  1
  O  O271  1  0.91140000  0.44540000  0.85100000  1
  O  O272  1  0.83360000  0.39560000  0.91830000  1
  O  O273  1  0.41140000  0.14900000  0.44540000  1
  O  O274  1  0.33360000  0.08170000  0.39560000  1
  O  O275  1  0.06700000  0.85200000  0.45438000  1
  O  O276  1  0.41140000  0.85100000  0.55460000  1
  O  O277  1  0.33360000  0.91830000  0.60440000  1
  O  O278  1  0.91140000  0.55460000  0.85100000  1
  O  O279  1  0.83360000  0.60440000  0.91830000  1
  O  O280  1  0.91140000  0.44540000  0.14900000  1
  O  O281  1  0.83360000  0.39560000  0.08170000  1
  O  O282  1  0.56700000  0.45438000  0.85200000  1
  O  O283  1  0.41140000  0.14900000  0.55460000  1
  O  O284  1  0.33360000  0.08170000  0.60440000  1
  O  O285  1  0.06700000  0.85200000  0.54562000  1
  O  O286  1  0.41140000  0.85100000  0.44540000  1
  O  O287  1  0.33360000  0.91830000  0.39560000  1
  O  O288  1  0.08860000  0.44540000  0.85100000  1
  O  O289  1  0.16640000  0.39560000  0.91830000  1
  O  O290  1  0.08860000  0.55460000  0.14900000  1
  O  O291  1  0.16640000  0.60440000  0.08170000  1
  O  O292  1  0.58860000  0.85100000  0.55460000  1
  O  O293  1  0.66640000  0.91830000  0.60440000  1
  O  O294  1  0.58860000  0.14900000  0.44540000  1
  O  O295  1  0.66640000  0.08170000  0.39560000  1
  O  O296  1  0.11430000  0.50000000  0.05010000  1
  O  O297  1  0.11430000  0.50000000  0.94990000  1
  O  O298  1  0.61430000  0.94990000  0.50000000  1
  O  O299  1  0.61430000  0.05010000  0.50000000  1
  O  O300  1  0.88570000  0.50000000  0.05010000  1
  O  O301  1  0.69400000  0.50000000  0.88900000  1
  O  O302  1  0.88570000  0.50000000  0.94990000  1
  O  O303  1  0.38570000  0.05010000  0.50000000  1
  O  O304  1  0.19400000  0.88900000  0.50000000  1
  O  O305  1  0.38570000  0.94990000  0.50000000  1
  O  O306  1  0.00000000  0.42900000  0.05020000  1
  O  O307  1  0.00000000  0.57100000  0.94980000  1
  O  O308  1  0.50000000  0.94980000  0.42900000  1
  O  O309  1  0.50000000  0.05020000  0.57100000  1
  O  O310  1  0.00000000  0.57100000  0.05020000  1
  O  O311  1  0.00000000  0.42900000  0.94980000  1
  O  O312  1  0.50000000  0.05020000  0.42900000  1
  O  O313  1  0.50000000  0.94980000  0.57100000  1
  O  O314  1  0.25980000  0.44040000  0.00000000  1
  O  O315  1  0.25980000  0.55960000  0.00000000  1
  O  O316  1  0.75980000  0.00000000  0.44040000  1
  O  O317  1  0.75980000  0.00000000  0.55960000  1
  O  O318  1  0.74020000  0.55960000  0.00000000  1
  O  O319  1  0.74020000  0.44040000  0.00000000  1
  O  O320  1  0.24020000  0.00000000  0.44040000  1
  O  O321  1  0.24020000  0.00000000  0.55960000  1
