# generated using pymatgen
data_Zr6H54C72NO28
_symmetry_space_group_name_H-M   'P 1'
_cell_length_a   14.70600000
_cell_length_b   24.25000000
_cell_length_c   24.25000000
_cell_angle_alpha   90.00000000
_cell_angle_beta   90.00000000
_cell_angle_gamma   90.00000000
_symmetry_Int_Tables_number   1
_chemical_formula_structural   Zr6H54C72NO28
_chemical_formula_sum   'Zr12 H108 C144 N2 O56'
_cell_volume   8648.04712500
_cell_formula_units_Z   2
loop_
 _symmetry_equiv_pos_site_id
 _symmetry_equiv_pos_as_xyz
  1  'x, y, z'
loop_
 _atom_site_type_symbol
 _atom_site_label
 _atom_site_symmetry_multiplicity
 _atom_site_fract_x
 _atom_site_fract_y
 _atom_site_fract_z
 _atom_site_occupancy
  Zr  Zr0  1  0.37943000  0.00000000  0.42768000  1
  Zr  Zr1  1  0.37943000  0.00000000  0.57232000  1
  Zr  Zr2  1  0.87943000  0.57232000  0.00000000  1
  Zr  Zr3  1  0.87943000  0.42768000  0.00000000  1
  Zr  Zr4  1  0.62057000  0.00000000  0.42768000  1
  Zr  Zr5  1  0.62057000  0.00000000  0.57232000  1
  Zr  Zr6  1  0.12057000  0.42768000  0.00000000  1
  Zr  Zr7  1  0.12057000  0.57232000  0.00000000  1
  Zr  Zr8  1  0.50000000  0.89809000  0.50000000  1
  Zr  Zr9  1  0.50000000  0.10191000  0.50000000  1
  Zr  Zr10  1  0.00000000  0.50000000  0.89809000  1
  Zr  Zr11  1  0.00000000  0.50000000  0.10191000  1
  H  H12  1  0.40370000  0.76370000  0.40000000  1
  H  H13  1  0.18110000  0.80840000  0.26220000  1
  H  H14  1  0.23700000  0.88010000  0.32240000  1
  H  H15  1  0.45340000  0.68100000  0.35710000  1
  H  H16  1  0.41570000  0.66640000  0.29850000  1
  H  H17  1  0.36340000  0.64690000  0.35130000  1
  H  H18  1  0.40370000  0.23630000  0.60000000  1
  H  H19  1  0.18110000  0.19160000  0.73780000  1
  H  H20  1  0.23700000  0.11990000  0.67760000  1
  H  H21  1  0.45340000  0.31900000  0.64290000  1
  H  H22  1  0.41570000  0.33360000  0.70150000  1
  H  H23  1  0.36340000  0.35310000  0.64870000  1
  H  H24  1  0.90370000  0.60000000  0.76370000  1
  H  H25  1  0.68110000  0.73780000  0.80840000  1
  H  H26  1  0.73700000  0.67760000  0.88010000  1
  H  H27  1  0.95340000  0.64290000  0.68100000  1
  H  H28  1  0.91570000  0.70150000  0.66640000  1
  H  H29  1  0.86340000  0.64870000  0.64690000  1
  H  H30  1  0.90370000  0.40000000  0.23630000  1
  H  H31  1  0.68110000  0.26220000  0.19160000  1
  H  H32  1  0.73700000  0.32240000  0.11990000  1
  H  H33  1  0.95340000  0.35710000  0.31900000  1
  H  H34  1  0.91570000  0.29850000  0.33360000  1
  H  H35  1  0.86340000  0.35130000  0.35310000  1
  H  H36  1  0.64740000  0.39680000  0.02620000  1
  H  H37  1  0.62280000  0.38840000  0.96390000  1
  H  H38  1  0.55730000  0.36640000  0.00990000  1
  H  H39  1  0.59630000  0.23630000  0.40000000  1
  H  H40  1  0.81890000  0.19160000  0.26220000  1
  H  H41  1  0.76300000  0.11990000  0.32240000  1
  H  H42  1  0.54660000  0.31900000  0.35710000  1
  H  H43  1  0.58430000  0.33360000  0.29850000  1
  H  H44  1  0.63660000  0.35310000  0.35130000  1
  H  H45  1  0.59630000  0.76370000  0.60000000  1
  H  H46  1  0.81890000  0.80840000  0.73780000  1
  H  H47  1  0.76300000  0.88010000  0.67760000  1
  H  H48  1  0.54660000  0.68100000  0.64290000  1
  H  H49  1  0.58430000  0.66640000  0.70150000  1
  H  H50  1  0.63660000  0.64690000  0.64870000  1
  H  H51  1  0.09630000  0.40000000  0.76370000  1
  H  H52  1  0.31890000  0.26220000  0.80840000  1
  H  H53  1  0.26300000  0.32240000  0.88010000  1
  H  H54  1  0.04660000  0.35710000  0.68100000  1
  H  H55  1  0.08430000  0.29850000  0.66640000  1
  H  H56  1  0.13660000  0.35130000  0.64690000  1
  H  H57  1  0.09630000  0.60000000  0.23630000  1
  H  H58  1  0.31890000  0.73780000  0.19160000  1
  H  H59  1  0.26300000  0.67760000  0.11990000  1
  H  H60  1  0.04660000  0.64290000  0.31900000  1
  H  H61  1  0.08430000  0.70150000  0.33360000  1
  H  H62  1  0.13660000  0.64870000  0.35310000  1
  H  H63  1  0.59630000  0.23630000  0.60000000  1
  H  H64  1  0.81890000  0.19160000  0.73780000  1
  H  H65  1  0.76300000  0.11990000  0.67760000  1
  H  H66  1  0.54660000  0.31900000  0.64290000  1
  H  H67  1  0.58430000  0.33360000  0.70150000  1
  H  H68  1  0.63660000  0.35310000  0.64870000  1
  H  H69  1  0.59630000  0.76370000  0.40000000  1
  H  H70  1  0.81890000  0.80840000  0.26220000  1
  H  H71  1  0.76300000  0.88010000  0.32240000  1
  H  H72  1  0.54660000  0.68100000  0.35710000  1
  H  H73  1  0.58430000  0.66640000  0.29850000  1
  H  H74  1  0.63660000  0.64690000  0.35130000  1
  H  H75  1  0.85260000  0.97380000  0.39680000  1
  H  H76  1  0.87720000  0.03610000  0.38840000  1
  H  H77  1  0.94270000  0.99010000  0.36640000  1
  H  H78  1  0.09630000  0.40000000  0.23630000  1
  H  H79  1  0.31890000  0.26220000  0.19160000  1
  H  H80  1  0.26300000  0.32240000  0.11990000  1
  H  H81  1  0.04660000  0.35710000  0.31900000  1
  H  H82  1  0.08430000  0.29850000  0.33360000  1
  H  H83  1  0.13660000  0.35130000  0.35310000  1
  H  H84  1  0.09630000  0.60000000  0.76370000  1
  H  H85  1  0.31890000  0.73780000  0.80840000  1
  H  H86  1  0.26300000  0.67760000  0.88010000  1
  H  H87  1  0.04660000  0.64290000  0.68100000  1
  H  H88  1  0.08430000  0.70150000  0.66640000  1
  H  H89  1  0.13660000  0.64870000  0.64690000  1
  H  H90  1  0.40370000  0.76370000  0.60000000  1
  H  H91  1  0.18110000  0.80840000  0.73780000  1
  H  H92  1  0.23700000  0.88010000  0.67760000  1
  H  H93  1  0.45340000  0.68100000  0.64290000  1
  H  H94  1  0.41570000  0.66640000  0.70150000  1
  H  H95  1  0.36340000  0.64690000  0.64870000  1
  H  H96  1  0.40370000  0.23630000  0.40000000  1
  H  H97  1  0.18110000  0.19160000  0.26220000  1
  H  H98  1  0.23700000  0.11990000  0.32240000  1
  H  H99  1  0.45340000  0.31900000  0.35710000  1
  H  H100  1  0.41570000  0.33360000  0.29850000  1
  H  H101  1  0.36340000  0.35310000  0.35130000  1
  H  H102  1  0.90370000  0.60000000  0.23630000  1
  H  H103  1  0.68110000  0.73780000  0.19160000  1
  H  H104  1  0.73700000  0.67760000  0.11990000  1
  H  H105  1  0.95340000  0.64290000  0.31900000  1
  H  H106  1  0.91570000  0.70150000  0.33360000  1
  H  H107  1  0.86340000  0.64870000  0.35310000  1
  H  H108  1  0.90370000  0.40000000  0.76370000  1
  H  H109  1  0.68110000  0.26220000  0.80840000  1
  H  H110  1  0.73700000  0.32240000  0.88010000  1
  H  H111  1  0.95340000  0.35710000  0.68100000  1
  H  H112  1  0.91570000  0.29850000  0.66640000  1
  H  H113  1  0.86340000  0.35130000  0.64690000  1
  H  H114  1  0.58372000  0.58760000  0.00000000  1
  H  H115  1  0.41628000  0.41240000  0.00000000  1
  H  H116  1  0.41628000  0.58760000  0.00000000  1
  H  H117  1  0.91628000  0.00000000  0.58760000  1
  H  H118  1  0.08372000  0.00000000  0.41240000  1
  H  H119  1  0.08372000  0.00000000  0.58760000  1
  C  C120  1  0.36180000  0.77230000  0.37260000  1
  C  C121  1  0.32270000  0.82420000  0.37020000  1
  C  C122  1  0.33820000  0.73520000  0.33520000  1
  C  C123  1  0.22670000  0.80150000  0.28790000  1
  C  C124  1  0.35340000  0.87010000  0.40550000  1
  C  C125  1  0.25640000  0.84370000  0.32520000  1
  C  C126  1  0.26760000  0.75060000  0.29110000  1
  C  C127  1  0.39930000  0.67590000  0.33560000  1
  C  C128  1  0.36180000  0.22770000  0.62740000  1
  C  C129  1  0.32270000  0.17580000  0.62980000  1
  C  C130  1  0.33820000  0.26480000  0.66480000  1
  C  C131  1  0.22670000  0.19850000  0.71210000  1
  C  C132  1  0.35340000  0.12990000  0.59450000  1
  C  C133  1  0.25640000  0.15630000  0.67480000  1
  C  C134  1  0.26760000  0.24940000  0.70890000  1
  C  C135  1  0.39930000  0.32410000  0.66440000  1
  C  C136  1  0.86180000  0.62740000  0.77230000  1
  C  C137  1  0.82270000  0.62980000  0.82420000  1
  C  C138  1  0.83820000  0.66480000  0.73520000  1
  C  C139  1  0.72670000  0.71210000  0.80150000  1
  C  C140  1  0.85340000  0.59450000  0.87010000  1
  C  C141  1  0.75640000  0.67480000  0.84370000  1
  C  C142  1  0.76760000  0.70890000  0.75060000  1
  C  C143  1  0.89930000  0.66440000  0.67590000  1
  C  C144  1  0.86180000  0.37260000  0.22770000  1
  C  C145  1  0.82270000  0.37020000  0.17580000  1
  C  C146  1  0.83820000  0.33520000  0.26480000  1
  C  C147  1  0.72670000  0.28790000  0.19850000  1
  C  C148  1  0.85340000  0.40550000  0.12990000  1
  C  C149  1  0.75640000  0.32520000  0.15630000  1
  C  C150  1  0.76760000  0.29110000  0.24940000  1
  C  C151  1  0.89930000  0.33560000  0.32410000  1
  C  C152  1  0.63820000  0.22770000  0.37260000  1
  C  C153  1  0.67730000  0.17580000  0.37020000  1
  C  C154  1  0.66180000  0.26480000  0.33520000  1
  C  C155  1  0.77330000  0.19850000  0.28790000  1
  C  C156  1  0.64660000  0.12990000  0.40550000  1
  C  C157  1  0.74360000  0.15630000  0.32520000  1
  C  C158  1  0.73240000  0.24940000  0.29110000  1
  C  C159  1  0.60070000  0.32410000  0.33560000  1
  C  C160  1  0.63820000  0.77230000  0.62740000  1
  C  C161  1  0.67730000  0.82420000  0.62980000  1
  C  C162  1  0.66180000  0.73520000  0.66480000  1
  C  C163  1  0.77330000  0.80150000  0.71210000  1
  C  C164  1  0.64660000  0.87010000  0.59450000  1
  C  C165  1  0.74360000  0.84370000  0.67480000  1
  C  C166  1  0.73240000  0.75060000  0.70890000  1
  C  C167  1  0.60070000  0.67590000  0.66440000  1
  C  C168  1  0.13820000  0.37260000  0.77230000  1
  C  C169  1  0.17730000  0.37020000  0.82420000  1
  C  C170  1  0.16180000  0.33520000  0.73520000  1
  C  C171  1  0.27330000  0.28790000  0.80150000  1
  C  C172  1  0.14660000  0.40550000  0.87010000  1
  C  C173  1  0.24360000  0.32520000  0.84370000  1
  C  C174  1  0.23240000  0.29110000  0.75060000  1
  C  C175  1  0.10070000  0.33560000  0.67590000  1
  C  C176  1  0.13820000  0.62740000  0.22770000  1
  C  C177  1  0.17730000  0.62980000  0.17580000  1
  C  C178  1  0.16180000  0.66480000  0.26480000  1
  C  C179  1  0.27330000  0.71210000  0.19850000  1
  C  C180  1  0.14660000  0.59450000  0.12990000  1
  C  C181  1  0.24360000  0.67480000  0.15630000  1
  C  C182  1  0.23240000  0.70890000  0.24940000  1
  C  C183  1  0.10070000  0.66440000  0.32410000  1
  C  C184  1  0.63820000  0.22770000  0.62740000  1
  C  C185  1  0.67730000  0.17580000  0.62980000  1
  C  C186  1  0.66180000  0.26480000  0.66480000  1
  C  C187  1  0.77330000  0.19850000  0.71210000  1
  C  C188  1  0.64660000  0.12990000  0.59450000  1
  C  C189  1  0.74360000  0.15630000  0.67480000  1
  C  C190  1  0.73240000  0.24940000  0.70890000  1
  C  C191  1  0.60070000  0.32410000  0.66440000  1
  C  C192  1  0.63820000  0.77230000  0.37260000  1
  C  C193  1  0.67730000  0.82420000  0.37020000  1
  C  C194  1  0.66180000  0.73520000  0.33520000  1
  C  C195  1  0.77330000  0.80150000  0.28790000  1
  C  C196  1  0.64660000  0.87010000  0.40550000  1
  C  C197  1  0.74360000  0.84370000  0.32520000  1
  C  C198  1  0.73240000  0.75060000  0.29110000  1
  C  C199  1  0.60070000  0.67590000  0.33560000  1
  C  C200  1  0.13820000  0.37260000  0.22770000  1
  C  C201  1  0.17730000  0.37020000  0.17580000  1
  C  C202  1  0.16180000  0.33520000  0.26480000  1
  C  C203  1  0.27330000  0.28790000  0.19850000  1
  C  C204  1  0.14660000  0.40550000  0.12990000  1
  C  C205  1  0.24360000  0.32520000  0.15630000  1
  C  C206  1  0.23240000  0.29110000  0.24940000  1
  C  C207  1  0.10070000  0.33560000  0.32410000  1
  C  C208  1  0.13820000  0.62740000  0.77230000  1
  C  C209  1  0.17730000  0.62980000  0.82420000  1
  C  C210  1  0.16180000  0.66480000  0.73520000  1
  C  C211  1  0.27330000  0.71210000  0.80150000  1
  C  C212  1  0.14660000  0.59450000  0.87010000  1
  C  C213  1  0.24360000  0.67480000  0.84370000  1
  C  C214  1  0.23240000  0.70890000  0.75060000  1
  C  C215  1  0.10070000  0.66440000  0.67590000  1
  C  C216  1  0.36180000  0.77230000  0.62740000  1
  C  C217  1  0.32270000  0.82420000  0.62980000  1
  C  C218  1  0.33820000  0.73520000  0.66480000  1
  C  C219  1  0.22670000  0.80150000  0.71210000  1
  C  C220  1  0.35340000  0.87010000  0.59450000  1
  C  C221  1  0.25640000  0.84370000  0.67480000  1
  C  C222  1  0.26760000  0.75060000  0.70890000  1
  C  C223  1  0.39930000  0.67590000  0.66440000  1
  C  C224  1  0.36180000  0.22770000  0.37260000  1
  C  C225  1  0.32270000  0.17580000  0.37020000  1
  C  C226  1  0.33820000  0.26480000  0.33520000  1
  C  C227  1  0.22670000  0.19850000  0.28790000  1
  C  C228  1  0.35340000  0.12990000  0.40550000  1
  C  C229  1  0.25640000  0.15630000  0.32520000  1
  C  C230  1  0.26760000  0.24940000  0.29110000  1
  C  C231  1  0.39930000  0.32410000  0.33560000  1
  C  C232  1  0.86180000  0.62740000  0.22770000  1
  C  C233  1  0.82270000  0.62980000  0.17580000  1
  C  C234  1  0.83820000  0.66480000  0.26480000  1
  C  C235  1  0.72670000  0.71210000  0.19850000  1
  C  C236  1  0.85340000  0.59450000  0.12990000  1
  C  C237  1  0.75640000  0.67480000  0.15630000  1
  C  C238  1  0.76760000  0.70890000  0.24940000  1
  C  C239  1  0.89930000  0.66440000  0.32410000  1
  C  C240  1  0.86180000  0.37260000  0.77230000  1
  C  C241  1  0.82270000  0.37020000  0.82420000  1
  C  C242  1  0.83820000  0.33520000  0.73520000  1
  C  C243  1  0.72670000  0.28790000  0.80150000  1
  C  C244  1  0.85340000  0.40550000  0.87010000  1
  C  C245  1  0.75640000  0.32520000  0.84370000  1
  C  C246  1  0.76760000  0.29110000  0.75060000  1
  C  C247  1  0.89930000  0.33560000  0.67590000  1
  C  C248  1  0.04546000  0.00000000  0.45328000  1
  C  C249  1  0.04546000  1.00000000  0.54672000  1
  C  C250  1  0.54546000  0.54672000  0.00000000  1
  C  C251  1  0.59860000  0.39539000  0.00000000  1
  C  C252  1  0.90140000  0.00000000  0.39539000  1
  C  C253  1  0.95454000  1.00000000  0.54672000  1
  C  C254  1  0.45454000  0.45328000  0.00000000  1
  C  C255  1  0.45454000  0.54672000  0.00000000  1
  C  C256  1  0.09070000  0.00000000  0.50000000  1
  C  C257  1  0.19270000  0.00000000  0.50000000  1
  C  C258  1  0.59070000  0.50000000  0.00000000  1
  C  C259  1  0.69270000  0.50000000  0.00000000  1
  C  C260  1  0.90930000  0.00000000  0.50000000  1
  C  C261  1  0.80730000  0.00000000  0.50000000  1
  C  C262  1  0.40930000  0.50000000  0.00000000  1
  C  C263  1  0.30730000  0.50000000  0.00000000  1
  N  N264  1  0.54546000  0.45328000  0.00000000  1
  N  N265  1  0.95454000  0.00000000  0.45328000  1
  O  O266  1  0.41140000  0.85130000  0.44550000  1
  O  O267  1  0.32820000  0.91930000  0.39680000  1
  O  O268  1  0.41140000  0.14870000  0.55450000  1
  O  O269  1  0.32820000  0.08070000  0.60320000  1
  O  O270  1  0.91140000  0.55450000  0.85130000  1
  O  O271  1  0.82820000  0.60320000  0.91930000  1
  O  O272  1  0.91140000  0.44550000  0.14870000  1
  O  O273  1  0.82820000  0.39680000  0.08070000  1
  O  O274  1  0.58860000  0.14870000  0.44550000  1
  O  O275  1  0.67180000  0.08070000  0.39680000  1
  O  O276  1  0.58860000  0.85130000  0.55450000  1
  O  O277  1  0.67180000  0.91930000  0.60320000  1
  O  O278  1  0.08860000  0.44550000  0.85130000  1
  O  O279  1  0.17180000  0.39680000  0.91930000  1
  O  O280  1  0.08860000  0.55450000  0.14870000  1
  O  O281  1  0.17180000  0.60320000  0.08070000  1
  O  O282  1  0.58860000  0.14870000  0.55450000  1
  O  O283  1  0.67180000  0.08070000  0.60320000  1
  O  O284  1  0.58860000  0.85130000  0.44550000  1
  O  O285  1  0.67180000  0.91930000  0.39680000  1
  O  O286  1  0.08860000  0.44550000  0.14870000  1
  O  O287  1  0.17180000  0.39680000  0.08070000  1
  O  O288  1  0.08860000  0.55450000  0.85130000  1
  O  O289  1  0.17180000  0.60320000  0.91930000  1
  O  O290  1  0.41140000  0.85130000  0.55450000  1
  O  O291  1  0.32820000  0.91930000  0.60320000  1
  O  O292  1  0.41140000  0.14870000  0.44550000  1
  O  O293  1  0.32820000  0.08070000  0.39680000  1
  O  O294  1  0.91140000  0.55450000  0.14870000  1
  O  O295  1  0.82820000  0.60320000  0.08070000  1
  O  O296  1  0.91140000  0.44550000  0.85130000  1
  O  O297  1  0.82820000  0.39680000  0.91930000  1
  O  O298  1  0.23450000  0.00000000  0.43710000  1
  O  O299  1  0.23450000  1.00000000  0.56290000  1
  O  O300  1  0.73450000  0.56290000  0.00000000  1
  O  O301  1  0.73450000  0.43710000  0.00000000  1
  O  O302  1  0.76550000  0.00000000  0.43710000  1
  O  O303  1  0.76550000  1.00000000  0.56290000  1
  O  O304  1  0.26550000  0.43710000  0.00000000  1
  O  O305  1  0.26550000  0.56290000  0.00000000  1
  O  O306  1  0.38210000  0.95010000  0.50000000  1
  O  O307  1  0.38210000  0.04990000  0.50000000  1
  O  O308  1  0.88210000  0.50000000  0.95010000  1
  O  O309  1  0.88210000  0.50000000  0.04990000  1
  O  O310  1  0.61790000  0.04990000  0.50000000  1
  O  O311  1  0.61790000  0.95010000  0.50000000  1
  O  O312  1  0.11790000  0.50000000  0.95010000  1
  O  O313  1  0.11790000  0.50000000  0.04990000  1
  O  O314  1  0.50000000  0.95070000  0.42670000  1
  O  O315  1  0.50000000  0.04930000  0.57330000  1
  O  O316  1  0.00000000  0.57330000  0.95070000  1
  O  O317  1  0.00000000  0.42670000  0.04930000  1
  O  O318  1  0.50000000  0.04930000  0.42670000  1
  O  O319  1  0.50000000  0.95070000  0.57330000  1
  O  O320  1  0.00000000  0.42670000  0.95070000  1
  O  O321  1  0.00000000  0.57330000  0.04930000  1
