# generated using pymatgen
data_Zr3H26C44(NO7)2
_symmetry_space_group_name_H-M   'P 1'
_cell_length_a   14.81300000
_cell_length_b   40.96700000
_cell_length_c   40.96700000
_cell_angle_alpha   120.00000000
_cell_angle_beta   90.00000000
_cell_angle_gamma   90.00000000
_symmetry_Int_Tables_number   1
_chemical_formula_structural   Zr3H26C44(NO7)2
_chemical_formula_sum   'Zr18 H156 C264 N12 O84'
_cell_volume   21529.89829575
_cell_formula_units_Z   6
loop_
 _symmetry_equiv_pos_site_id
 _symmetry_equiv_pos_as_xyz
  1  'x, y, z'
loop_
 _atom_site_type_symbol
 _atom_site_label
 _atom_site_symmetry_multiplicity
 _atom_site_fract_x
 _atom_site_fract_y
 _atom_site_fract_z
 _atom_site_occupancy
  Zr  Zr0  1  0.50000000  0.46551000  0.53450000  1
  Zr  Zr1  1  0.50000000  0.06899000  0.53449000  1
  Zr  Zr2  1  0.50000000  0.46551000  0.93102000  1
  Zr  Zr3  1  0.50000000  0.53449000  0.46550000  1
  Zr  Zr4  1  0.50000000  0.93101000  0.46550000  1
  Zr  Zr5  1  0.50000000  0.53449000  0.06898000  1
  Zr  Zr6  1  0.61895000  0.54275000  0.54275000  1
  Zr  Zr7  1  0.61895000  1.00000000  0.45725000  1
  Zr  Zr8  1  0.61895000  0.45725000  0.00000000  1
  Zr  Zr9  1  0.61895000  0.45725000  0.45725000  1
  Zr  Zr10  1  0.61895000  1.00000000  0.54275000  1
  Zr  Zr11  1  0.61895000  0.54275000  1.00000000  1
  Zr  Zr12  1  0.38105000  1.00000000  0.45725000  1
  Zr  Zr13  1  0.38105000  0.54275000  0.54275000  1
  Zr  Zr14  1  0.38105000  0.45725000  0.00000000  1
  Zr  Zr15  1  0.38105000  1.00000000  0.54275000  1
  Zr  Zr16  1  0.38105000  0.45725000  0.45725000  1
  Zr  Zr17  1  0.38105000  0.54275000  1.00000000  1
  H  H18  1  0.75480000  0.56190000  0.64800000  1
  H  H19  1  0.82920000  0.56730000  0.70080000  1
  H  H20  1  0.69070000  0.47290000  0.68430000  1
  H  H21  1  0.62450000  0.46940000  0.63150000  1
  H  H22  1  0.93200000  0.53220000  0.71760000  1
  H  H23  1  0.75480000  0.08610000  0.43810000  1
  H  H24  1  0.82920000  0.13350000  0.43270000  1
  H  H25  1  0.69070000  0.21140000  0.52710000  1
  H  H26  1  0.62450000  0.16210000  0.53060000  1
  H  H27  1  0.93200000  0.18540000  0.46780000  1
  H  H28  1  0.75480000  0.35200000  0.91390000  1
  H  H29  1  0.82920000  0.29920000  0.86650000  1
  H  H30  1  0.69070000  0.31570000  0.78860000  1
  H  H31  1  0.62450000  0.36850000  0.83790000  1
  H  H32  1  0.93200000  0.28240000  0.81460000  1
  H  H33  1  0.75480000  0.43810000  0.35200000  1
  H  H34  1  0.82920000  0.43270000  0.29920000  1
  H  H35  1  0.69070000  0.52710000  0.31570000  1
  H  H36  1  0.62450000  0.53060000  0.36850000  1
  H  H37  1  0.93200000  0.46780000  0.28240000  1
  H  H38  1  0.75480000  0.91390000  0.56190000  1
  H  H39  1  0.82920000  0.86650000  0.56730000  1
  H  H40  1  0.69070000  0.78860000  0.47290000  1
  H  H41  1  0.62450000  0.83790000  0.46940000  1
  H  H42  1  0.93200000  0.81460000  0.53220000  1
  H  H43  1  0.75480000  0.64800000  0.08610000  1
  H  H44  1  0.82920000  0.70080000  0.13350000  1
  H  H45  1  0.69070000  0.68430000  0.21140000  1
  H  H46  1  0.62450000  0.63150000  0.16210000  1
  H  H47  1  0.93200000  0.71760000  0.18540000  1
  H  H48  1  0.24520000  0.91390000  0.35200000  1
  H  H49  1  0.17080000  0.86650000  0.29920000  1
  H  H50  1  0.30930000  0.78860000  0.31570000  1
  H  H51  1  0.37550000  0.83790000  0.36850000  1
  H  H52  1  0.06800000  0.81460000  0.28240000  1
  H  H53  1  0.24520000  0.64800000  0.56190000  1
  H  H54  1  0.17080000  0.70080000  0.56730000  1
  H  H55  1  0.30930000  0.68430000  0.47290000  1
  H  H56  1  0.37550000  0.63150000  0.46940000  1
  H  H57  1  0.06800000  0.71760000  0.53220000  1
  H  H58  1  0.24520000  0.43810000  0.08610000  1
  H  H59  1  0.17080000  0.43270000  0.13350000  1
  H  H60  1  0.30930000  0.52710000  0.21140000  1
  H  H61  1  0.37550000  0.53060000  0.16210000  1
  H  H62  1  0.06800000  0.46780000  0.18540000  1
  H  H63  1  0.24520000  0.08610000  0.64800000  1
  H  H64  1  0.17080000  0.13350000  0.70080000  1
  H  H65  1  0.30930000  0.21140000  0.68430000  1
  H  H66  1  0.37550000  0.16210000  0.63150000  1
  H  H67  1  0.06800000  0.18540000  0.71760000  1
  H  H68  1  0.24520000  0.35200000  0.43810000  1
  H  H69  1  0.17080000  0.29920000  0.43270000  1
  H  H70  1  0.30930000  0.31570000  0.52710000  1
  H  H71  1  0.37550000  0.36850000  0.53060000  1
  H  H72  1  0.06800000  0.28240000  0.46780000  1
  H  H73  1  0.24520000  0.56190000  0.91390000  1
  H  H74  1  0.17080000  0.56730000  0.86650000  1
  H  H75  1  0.30930000  0.47290000  0.78860000  1
  H  H76  1  0.37550000  0.46940000  0.83790000  1
  H  H77  1  0.06800000  0.53220000  0.81460000  1
  H  H78  1  0.24520000  0.43810000  0.35200000  1
  H  H79  1  0.17080000  0.43270000  0.29920000  1
  H  H80  1  0.30930000  0.52710000  0.31570000  1
  H  H81  1  0.37550000  0.53060000  0.36850000  1
  H  H82  1  0.06800000  0.46780000  0.28240000  1
  H  H83  1  0.24520000  0.91390000  0.56190000  1
  H  H84  1  0.17080000  0.86650000  0.56730000  1
  H  H85  1  0.30930000  0.78860000  0.47290000  1
  H  H86  1  0.37550000  0.83790000  0.46940000  1
  H  H87  1  0.06800000  0.81460000  0.53220000  1
  H  H88  1  0.24520000  0.64800000  0.08610000  1
  H  H89  1  0.17080000  0.70080000  0.13350000  1
  H  H90  1  0.30930000  0.68430000  0.21140000  1
  H  H91  1  0.37550000  0.63150000  0.16210000  1
  H  H92  1  0.06800000  0.71760000  0.18540000  1
  H  H93  1  0.24520000  0.56190000  0.64800000  1
  H  H94  1  0.17080000  0.56730000  0.70080000  1
  H  H95  1  0.30930000  0.47290000  0.68430000  1
  H  H96  1  0.37550000  0.46940000  0.63150000  1
  H  H97  1  0.06800000  0.53220000  0.71760000  1
  H  H98  1  0.24520000  0.08610000  0.43810000  1
  H  H99  1  0.17080000  0.13350000  0.43270000  1
  H  H100  1  0.30930000  0.21140000  0.52710000  1
  H  H101  1  0.37550000  0.16210000  0.53060000  1
  H  H102  1  0.06800000  0.18540000  0.46780000  1
  H  H103  1  0.24520000  0.35200000  0.91390000  1
  H  H104  1  0.17080000  0.29920000  0.86650000  1
  H  H105  1  0.30930000  0.31570000  0.78860000  1
  H  H106  1  0.37550000  0.36850000  0.83790000  1
  H  H107  1  0.06800000  0.28240000  0.81460000  1
  H  H108  1  0.75480000  0.08610000  0.64800000  1
  H  H109  1  0.82920000  0.13350000  0.70080000  1
  H  H110  1  0.69070000  0.21140000  0.68430000  1
  H  H111  1  0.62450000  0.16210000  0.63150000  1
  H  H112  1  0.93200000  0.18540000  0.71760000  1
  H  H113  1  0.75480000  0.35200000  0.43810000  1
  H  H114  1  0.82920000  0.29920000  0.43270000  1
  H  H115  1  0.69070000  0.31570000  0.52710000  1
  H  H116  1  0.62450000  0.36850000  0.53060000  1
  H  H117  1  0.93200000  0.28240000  0.46780000  1
  H  H118  1  0.75480000  0.56190000  0.91390000  1
  H  H119  1  0.82920000  0.56730000  0.86650000  1
  H  H120  1  0.69070000  0.47290000  0.78860000  1
  H  H121  1  0.62450000  0.46940000  0.83790000  1
  H  H122  1  0.93200000  0.53220000  0.81460000  1
  H  H123  1  0.75480000  0.91390000  0.35200000  1
  H  H124  1  0.82920000  0.86650000  0.29920000  1
  H  H125  1  0.69070000  0.78860000  0.31570000  1
  H  H126  1  0.62450000  0.83790000  0.36850000  1
  H  H127  1  0.93200000  0.81460000  0.28240000  1
  H  H128  1  0.75480000  0.64800000  0.56190000  1
  H  H129  1  0.82920000  0.70080000  0.56730000  1
  H  H130  1  0.69070000  0.68430000  0.47290000  1
  H  H131  1  0.62450000  0.63150000  0.46940000  1
  H  H132  1  0.93200000  0.71760000  0.53220000  1
  H  H133  1  0.75480000  0.43810000  0.08610000  1
  H  H134  1  0.82920000  0.43270000  0.13350000  1
  H  H135  1  0.69070000  0.52710000  0.21140000  1
  H  H136  1  0.62450000  0.53060000  0.16210000  1
  H  H137  1  0.93200000  0.46780000  0.18540000  1
  H  H138  1  0.91920000  0.54940000  0.54940000  1
  H  H139  1  0.91920000  1.00000000  0.45060000  1
  H  H140  1  0.91920000  0.45060000  0.00000000  1
  H  H141  1  0.91920000  0.45060000  0.45060000  1
  H  H142  1  0.91920000  0.00000000  0.54940000  1
  H  H143  1  0.91920000  0.54940000  1.00000000  1
  H  H144  1  0.08080000  1.00000000  0.45060000  1
  H  H145  1  0.08080000  0.54940000  0.54940000  1
  H  H146  1  0.08080000  0.45060000  0.00000000  1
  H  H147  1  0.08080000  0.00000000  0.54940000  1
  H  H148  1  0.08080000  0.45060000  0.45060000  1
  H  H149  1  0.08080000  0.54940000  1.00000000  1
  H  H150  1  0.64040000  0.49210000  0.26730000  1
  H  H151  1  0.63332000  0.44640000  0.22485000  1
  H  H152  1  0.36465000  0.45944000  0.25097000  1
  H  H153  1  0.35758000  0.50515000  0.25422000  1
  H  H154  1  0.64243000  0.74830000  0.49481000  1
  H  H155  1  0.63546000  0.79158000  0.53984000  1
  H  H156  1  0.35973000  0.77611000  0.50876000  1
  H  H157  1  0.35996000  0.73264000  0.51027000  1
  H  H158  1  0.63989000  0.51118000  0.73269000  1
  H  H159  1  0.63332000  0.55360000  0.77844000  1
  H  H160  1  0.36415000  0.53727000  0.74573000  1
  H  H161  1  0.35758000  0.49485000  0.74907000  1
  H  H162  1  0.64243000  0.25336000  0.50520000  1
  H  H163  1  0.63571000  0.20842000  0.46182000  1
  H  H164  1  0.63573000  0.25354000  0.79158000  1
  H  H165  1  0.63546000  0.20842000  0.74825000  1
  H  H166  1  0.36668000  0.22242000  0.77607000  1
  H  H167  1  0.35996000  0.26736000  0.77763000  1
  H  H168  1  0.35999000  0.22223000  0.48958000  1
  H  H169  1  0.35971000  0.26735000  0.49138000  1
  H  H170  1  0.63548000  0.74811000  0.20841000  1
  H  H171  1  0.63571000  0.79158000  0.25340000  1
  H  H172  1  0.36668000  0.77592000  0.22228000  1
  H  H173  1  0.35971000  0.73265000  0.22403000  1
  C  C174  1  0.64050000  0.50750000  0.59781000  1
  C  C175  1  0.68660000  0.51380000  0.63329000  1
  C  C176  1  0.74370000  0.54360000  0.65528000  1
  C  C177  1  0.78540000  0.54810000  0.68750000  1
  C  C178  1  0.75970000  0.52290000  0.69970000  1
  C  C179  1  0.70270000  0.49140000  0.67740000  1
  C  C180  1  0.66620000  0.48910000  0.64574000  1
  C  C181  1  0.81030000  0.52580000  0.73346000  1
  C  C182  1  0.90100000  0.52920000  0.73622000  1
  C  C183  1  0.64050000  0.09031000  0.49250000  1
  C  C184  1  0.68660000  0.11949000  0.48620000  1
  C  C185  1  0.74370000  0.11168000  0.45640000  1
  C  C186  1  0.78540000  0.13940000  0.45190000  1
  C  C187  1  0.75970000  0.17680000  0.47710000  1
  C  C188  1  0.70270000  0.18600000  0.50860000  1
  C  C189  1  0.66620000  0.15664000  0.51090000  1
  C  C190  1  0.81030000  0.20766000  0.47420000  1
  C  C191  1  0.90100000  0.20702000  0.47080000  1
  C  C192  1  0.64050000  0.40219000  0.90969000  1
  C  C193  1  0.68660000  0.36671000  0.88051000  1
  C  C194  1  0.74370000  0.34472000  0.88832000  1
  C  C195  1  0.78540000  0.31250000  0.86060000  1
  C  C196  1  0.75970000  0.30030000  0.82320000  1
  C  C197  1  0.70270000  0.32260000  0.81400000  1
  C  C198  1  0.66620000  0.35426000  0.84336000  1
  C  C199  1  0.81030000  0.26654000  0.79234000  1
  C  C200  1  0.90100000  0.26378000  0.79298000  1
  C  C201  1  0.64050000  0.49250000  0.40219000  1
  C  C202  1  0.68660000  0.48620000  0.36671000  1
  C  C203  1  0.74370000  0.45640000  0.34472000  1
  C  C204  1  0.78540000  0.45190000  0.31250000  1
  C  C205  1  0.75970000  0.47710000  0.30030000  1
  C  C206  1  0.70270000  0.50860000  0.32260000  1
  C  C207  1  0.66620000  0.51090000  0.35426000  1
  C  C208  1  0.81030000  0.47420000  0.26654000  1
  C  C209  1  0.90100000  0.47080000  0.26378000  1
  C  C210  1  0.64050000  0.90969000  0.50750000  1
  C  C211  1  0.68660000  0.88051000  0.51380000  1
  C  C212  1  0.74370000  0.88832000  0.54360000  1
  C  C213  1  0.78540000  0.86060000  0.54810000  1
  C  C214  1  0.75970000  0.82320000  0.52290000  1
  C  C215  1  0.70270000  0.81400000  0.49140000  1
  C  C216  1  0.66620000  0.84336000  0.48910000  1
  C  C217  1  0.81030000  0.79234000  0.52580000  1
  C  C218  1  0.90100000  0.79298000  0.52920000  1
  C  C219  1  0.64050000  0.59781000  0.09031000  1
  C  C220  1  0.68660000  0.63329000  0.11949000  1
  C  C221  1  0.74370000  0.65528000  0.11168000  1
  C  C222  1  0.78540000  0.68750000  0.13940000  1
  C  C223  1  0.75970000  0.69970000  0.17680000  1
  C  C224  1  0.70270000  0.67740000  0.18600000  1
  C  C225  1  0.66620000  0.64574000  0.15664000  1
  C  C226  1  0.81030000  0.73346000  0.20766000  1
  C  C227  1  0.90100000  0.73622000  0.20702000  1
  C  C228  1  0.35950000  0.90969000  0.40219000  1
  C  C229  1  0.31340000  0.88051000  0.36671000  1
  C  C230  1  0.25630000  0.88832000  0.34472000  1
  C  C231  1  0.21460000  0.86060000  0.31250000  1
  C  C232  1  0.24030000  0.82320000  0.30030000  1
  C  C233  1  0.29730000  0.81400000  0.32260000  1
  C  C234  1  0.33380000  0.84336000  0.35426000  1
  C  C235  1  0.18970000  0.79234000  0.26654000  1
  C  C236  1  0.09900000  0.79298000  0.26378000  1
  C  C237  1  0.35950000  0.59781000  0.50750000  1
  C  C238  1  0.31340000  0.63329000  0.51380000  1
  C  C239  1  0.25630000  0.65528000  0.54360000  1
  C  C240  1  0.21460000  0.68750000  0.54810000  1
  C  C241  1  0.24030000  0.69970000  0.52290000  1
  C  C242  1  0.29730000  0.67740000  0.49140000  1
  C  C243  1  0.33380000  0.64574000  0.48910000  1
  C  C244  1  0.18970000  0.73346000  0.52580000  1
  C  C245  1  0.09900000  0.73622000  0.52920000  1
  C  C246  1  0.35950000  0.49250000  0.09031000  1
  C  C247  1  0.31340000  0.48620000  0.11949000  1
  C  C248  1  0.25630000  0.45640000  0.11168000  1
  C  C249  1  0.21460000  0.45190000  0.13940000  1
  C  C250  1  0.24030000  0.47710000  0.17680000  1
  C  C251  1  0.29730000  0.50860000  0.18600000  1
  C  C252  1  0.33380000  0.51090000  0.15664000  1
  C  C253  1  0.18970000  0.47420000  0.20766000  1
  C  C254  1  0.09900000  0.47080000  0.20702000  1
  C  C255  1  0.35950000  0.09031000  0.59781000  1
  C  C256  1  0.31340000  0.11949000  0.63329000  1
  C  C257  1  0.25630000  0.11168000  0.65528000  1
  C  C258  1  0.21460000  0.13940000  0.68750000  1
  C  C259  1  0.24030000  0.17680000  0.69970000  1
  C  C260  1  0.29730000  0.18600000  0.67740000  1
  C  C261  1  0.33380000  0.15664000  0.64574000  1
  C  C262  1  0.18970000  0.20766000  0.73346000  1
  C  C263  1  0.09900000  0.20702000  0.73622000  1
  C  C264  1  0.35950000  0.40219000  0.49250000  1
  C  C265  1  0.31340000  0.36671000  0.48620000  1
  C  C266  1  0.25630000  0.34472000  0.45640000  1
  C  C267  1  0.21460000  0.31250000  0.45190000  1
  C  C268  1  0.24030000  0.30030000  0.47710000  1
  C  C269  1  0.29730000  0.32260000  0.50860000  1
  C  C270  1  0.33380000  0.35426000  0.51090000  1
  C  C271  1  0.18970000  0.26654000  0.47420000  1
  C  C272  1  0.09900000  0.26378000  0.47080000  1
  C  C273  1  0.35950000  0.50750000  0.90969000  1
  C  C274  1  0.31340000  0.51380000  0.88051000  1
  C  C275  1  0.25630000  0.54360000  0.88832000  1
  C  C276  1  0.21460000  0.54810000  0.86060000  1
  C  C277  1  0.24030000  0.52290000  0.82320000  1
  C  C278  1  0.29730000  0.49140000  0.81400000  1
  C  C279  1  0.33380000  0.48910000  0.84336000  1
  C  C280  1  0.18970000  0.52580000  0.79234000  1
  C  C281  1  0.09900000  0.52920000  0.79298000  1
  C  C282  1  0.35950000  0.49250000  0.40219000  1
  C  C283  1  0.31340000  0.48620000  0.36671000  1
  C  C284  1  0.25630000  0.45640000  0.34472000  1
  C  C285  1  0.21460000  0.45190000  0.31250000  1
  C  C286  1  0.24030000  0.47710000  0.30030000  1
  C  C287  1  0.29730000  0.50860000  0.32260000  1
  C  C288  1  0.33380000  0.51090000  0.35426000  1
  C  C289  1  0.18970000  0.47420000  0.26654000  1
  C  C290  1  0.09900000  0.47080000  0.26378000  1
  C  C291  1  0.35950000  0.90969000  0.50750000  1
  C  C292  1  0.31340000  0.88051000  0.51380000  1
  C  C293  1  0.25630000  0.88832000  0.54360000  1
  C  C294  1  0.21460000  0.86060000  0.54810000  1
  C  C295  1  0.24030000  0.82320000  0.52290000  1
  C  C296  1  0.29730000  0.81400000  0.49140000  1
  C  C297  1  0.33380000  0.84336000  0.48910000  1
  C  C298  1  0.18970000  0.79234000  0.52580000  1
  C  C299  1  0.09900000  0.79298000  0.52920000  1
  C  C300  1  0.35950000  0.59781000  0.09031000  1
  C  C301  1  0.31340000  0.63329000  0.11949000  1
  C  C302  1  0.25630000  0.65528000  0.11168000  1
  C  C303  1  0.21460000  0.68750000  0.13940000  1
  C  C304  1  0.24030000  0.69970000  0.17680000  1
  C  C305  1  0.29730000  0.67740000  0.18600000  1
  C  C306  1  0.33380000  0.64574000  0.15664000  1
  C  C307  1  0.18970000  0.73346000  0.20766000  1
  C  C308  1  0.09900000  0.73622000  0.20702000  1
  C  C309  1  0.35950000  0.50750000  0.59781000  1
  C  C310  1  0.31340000  0.51380000  0.63329000  1
  C  C311  1  0.25630000  0.54360000  0.65528000  1
  C  C312  1  0.21460000  0.54810000  0.68750000  1
  C  C313  1  0.24030000  0.52290000  0.69970000  1
  C  C314  1  0.29730000  0.49140000  0.67740000  1
  C  C315  1  0.33380000  0.48910000  0.64574000  1
  C  C316  1  0.18970000  0.52580000  0.73346000  1
  C  C317  1  0.09900000  0.52920000  0.73622000  1
  C  C318  1  0.35950000  0.09031000  0.49250000  1
  C  C319  1  0.31340000  0.11949000  0.48620000  1
  C  C320  1  0.25630000  0.11168000  0.45640000  1
  C  C321  1  0.21460000  0.13940000  0.45190000  1
  C  C322  1  0.24030000  0.17680000  0.47710000  1
  C  C323  1  0.29730000  0.18600000  0.50860000  1
  C  C324  1  0.33380000  0.15664000  0.51090000  1
  C  C325  1  0.18970000  0.20766000  0.47420000  1
  C  C326  1  0.09900000  0.20702000  0.47080000  1
  C  C327  1  0.35950000  0.40219000  0.90969000  1
  C  C328  1  0.31340000  0.36671000  0.88051000  1
  C  C329  1  0.25630000  0.34472000  0.88832000  1
  C  C330  1  0.21460000  0.31250000  0.86060000  1
  C  C331  1  0.24030000  0.30030000  0.82320000  1
  C  C332  1  0.29730000  0.32260000  0.81400000  1
  C  C333  1  0.33380000  0.35426000  0.84336000  1
  C  C334  1  0.18970000  0.26654000  0.79234000  1
  C  C335  1  0.09900000  0.26378000  0.79298000  1
  C  C336  1  0.64050000  0.09031000  0.59781000  1
  C  C337  1  0.68660000  0.11949000  0.63329000  1
  C  C338  1  0.74370000  0.11168000  0.65528000  1
  C  C339  1  0.78540000  0.13940000  0.68750000  1
  C  C340  1  0.75970000  0.17680000  0.69970000  1
  C  C341  1  0.70270000  0.18600000  0.67740000  1
  C  C342  1  0.66620000  0.15664000  0.64574000  1
  C  C343  1  0.81030000  0.20766000  0.73346000  1
  C  C344  1  0.90100000  0.20702000  0.73622000  1
  C  C345  1  0.64050000  0.40219000  0.49250000  1
  C  C346  1  0.68660000  0.36671000  0.48620000  1
  C  C347  1  0.74370000  0.34472000  0.45640000  1
  C  C348  1  0.78540000  0.31250000  0.45190000  1
  C  C349  1  0.75970000  0.30030000  0.47710000  1
  C  C350  1  0.70270000  0.32260000  0.50860000  1
  C  C351  1  0.66620000  0.35426000  0.51090000  1
  C  C352  1  0.81030000  0.26654000  0.47420000  1
  C  C353  1  0.90100000  0.26378000  0.47080000  1
  C  C354  1  0.64050000  0.50750000  0.90969000  1
  C  C355  1  0.68660000  0.51380000  0.88051000  1
  C  C356  1  0.74370000  0.54360000  0.88832000  1
  C  C357  1  0.78540000  0.54810000  0.86060000  1
  C  C358  1  0.75970000  0.52290000  0.82320000  1
  C  C359  1  0.70270000  0.49140000  0.81400000  1
  C  C360  1  0.66620000  0.48910000  0.84336000  1
  C  C361  1  0.81030000  0.52580000  0.79234000  1
  C  C362  1  0.90100000  0.52920000  0.79298000  1
  C  C363  1  0.64050000  0.90969000  0.40219000  1
  C  C364  1  0.68660000  0.88051000  0.36671000  1
  C  C365  1  0.74370000  0.88832000  0.34472000  1
  C  C366  1  0.78540000  0.86060000  0.31250000  1
  C  C367  1  0.75970000  0.82320000  0.30030000  1
  C  C368  1  0.70270000  0.81400000  0.32260000  1
  C  C369  1  0.66620000  0.84336000  0.35426000  1
  C  C370  1  0.81030000  0.79234000  0.26654000  1
  C  C371  1  0.90100000  0.79298000  0.26378000  1
  C  C372  1  0.64050000  0.59781000  0.50750000  1
  C  C373  1  0.68660000  0.63329000  0.51380000  1
  C  C374  1  0.74370000  0.65528000  0.54360000  1
  C  C375  1  0.78540000  0.68750000  0.54810000  1
  C  C376  1  0.75970000  0.69970000  0.52290000  1
  C  C377  1  0.70270000  0.67740000  0.49140000  1
  C  C378  1  0.66620000  0.64574000  0.48910000  1
  C  C379  1  0.81030000  0.73346000  0.52580000  1
  C  C380  1  0.90100000  0.73622000  0.52920000  1
  C  C381  1  0.64050000  0.49250000  0.09031000  1
  C  C382  1  0.68660000  0.48620000  0.11949000  1
  C  C383  1  0.74370000  0.45640000  0.11168000  1
  C  C384  1  0.78540000  0.45190000  0.13940000  1
  C  C385  1  0.75970000  0.47710000  0.17680000  1
  C  C386  1  0.70270000  0.50860000  0.18600000  1
  C  C387  1  0.66620000  0.51090000  0.15664000  1
  C  C388  1  0.81030000  0.47420000  0.20766000  1
  C  C389  1  0.90100000  0.47080000  0.20702000  1
  C  C390  1  0.75540000  0.52740000  0.76370000  1
  C  C391  1  0.95210000  0.52860000  0.76430000  1
  C  C392  1  0.75540000  0.23630000  0.47260000  1
  C  C393  1  0.95210000  0.23570000  0.47140000  1
  C  C394  1  0.75540000  0.23630000  0.76370000  1
  C  C395  1  0.95210000  0.23570000  0.76430000  1
  C  C396  1  0.75540000  0.47260000  0.23630000  1
  C  C397  1  0.95210000  0.47140000  0.23570000  1
  C  C398  1  0.75540000  0.76370000  0.52740000  1
  C  C399  1  0.95210000  0.76430000  0.52860000  1
  C  C400  1  0.75540000  0.76370000  0.23630000  1
  C  C401  1  0.95210000  0.76430000  0.23570000  1
  C  C402  1  0.24460000  0.76370000  0.23630000  1
  C  C403  1  0.04790000  0.76430000  0.23570000  1
  C  C404  1  0.24460000  0.76370000  0.52740000  1
  C  C405  1  0.04790000  0.76430000  0.52860000  1
  C  C406  1  0.24460000  0.47260000  0.23630000  1
  C  C407  1  0.04790000  0.47140000  0.23570000  1
  C  C408  1  0.24460000  0.23630000  0.76370000  1
  C  C409  1  0.04790000  0.23570000  0.76430000  1
  C  C410  1  0.24460000  0.23630000  0.47260000  1
  C  C411  1  0.04790000  0.23570000  0.47140000  1
  C  C412  1  0.24460000  0.52740000  0.76370000  1
  C  C413  1  0.04790000  0.52860000  0.76430000  1
  C  C414  1  0.95190000  0.52948000  0.52948000  1
  C  C415  1  0.95190000  1.00000000  0.47052000  1
  C  C416  1  0.95190000  0.47052000  0.00000000  1
  C  C417  1  0.95190000  0.47052000  0.47052000  1
  C  C418  1  0.95190000  1.00000000  0.52948000  1
  C  C419  1  0.95190000  0.52948000  0.00000000  1
  C  C420  1  0.04810000  1.00000000  0.47052000  1
  C  C421  1  0.04810000  0.52948000  0.52948000  1
  C  C422  1  0.04810000  0.47052000  0.00000000  1
  C  C423  1  0.04810000  1.00000000  0.52948000  1
  C  C424  1  0.04810000  0.47052000  0.47052000  1
  C  C425  1  0.04810000  0.52948000  0.00000000  1
  C  C426  1  0.80490000  0.50000000  0.50000000  1
  C  C427  1  0.90720000  0.50000000  0.50000000  1
  C  C428  1  0.80490000  1.00000000  0.50000000  1
  C  C429  1  0.90720000  1.00000000  0.50000000  1
  C  C430  1  0.80490000  0.50000000  0.00000000  1
  C  C431  1  0.90720000  0.50000000  0.00000000  1
  C  C432  1  0.19510000  1.00000000  0.50000000  1
  C  C433  1  0.09280000  1.00000000  0.50000000  1
  C  C434  1  0.19510000  0.50000000  0.50000000  1
  C  C435  1  0.09280000  0.50000000  0.50000000  1
  C  C436  1  0.19510000  0.50000000  0.00000000  1
  C  C437  1  0.09280000  0.50000000  0.00000000  1
  N  N438  1  0.66280000  0.52490000  0.76245000  1
  N  N439  1  0.66280000  0.23755000  0.47510000  1
  N  N440  1  0.66280000  0.23755000  0.76245000  1
  N  N441  1  0.66280000  0.47510000  0.23755000  1
  N  N442  1  0.66280000  0.76245000  0.52490000  1
  N  N443  1  0.66280000  0.76245000  0.23755000  1
  N  N444  1  0.33720000  0.76245000  0.23755000  1
  N  N445  1  0.33720000  0.76245000  0.52490000  1
  N  N446  1  0.33720000  0.47510000  0.23755000  1
  N  N447  1  0.33720000  0.23755000  0.76245000  1
  N  N448  1  0.33720000  0.23755000  0.47510000  1
  N  N449  1  0.33720000  0.52490000  0.76245000  1
  O  O450  1  0.58900000  0.48202000  0.58291000  1
  O  O451  1  0.66740000  0.53181000  0.58858000  1
  O  O452  1  0.58900000  0.10089000  0.51798000  1
  O  O453  1  0.66740000  0.05677000  0.46819000  1
  O  O454  1  0.58900000  0.41709000  0.89911000  1
  O  O455  1  0.66740000  0.41142000  0.94323000  1
  O  O456  1  0.58900000  0.51798000  0.41709000  1
  O  O457  1  0.66740000  0.46819000  0.41142000  1
  O  O458  1  0.58900000  0.89911000  0.48202000  1
  O  O459  1  0.66740000  0.94323000  0.53181000  1
  O  O460  1  0.58900000  0.58291000  0.10089000  1
  O  O461  1  0.66740000  0.58858000  0.05677000  1
  O  O462  1  0.41100000  0.89911000  0.41709000  1
  O  O463  1  0.33260000  0.94323000  0.41142000  1
  O  O464  1  0.41100000  0.58291000  0.48202000  1
  O  O465  1  0.33260000  0.58858000  0.53181000  1
  O  O466  1  0.41100000  0.51798000  0.10089000  1
  O  O467  1  0.33260000  0.46819000  0.05677000  1
  O  O468  1  0.41100000  0.10089000  0.58291000  1
  O  O469  1  0.33260000  0.05677000  0.58858000  1
  O  O470  1  0.41100000  0.41709000  0.51798000  1
  O  O471  1  0.33260000  0.41142000  0.46819000  1
  O  O472  1  0.41100000  0.48202000  0.89911000  1
  O  O473  1  0.33260000  0.53181000  0.94323000  1
  O  O474  1  0.41100000  0.51798000  0.41709000  1
  O  O475  1  0.33260000  0.46819000  0.41142000  1
  O  O476  1  0.41100000  0.89911000  0.48202000  1
  O  O477  1  0.33260000  0.94323000  0.53181000  1
  O  O478  1  0.41100000  0.58291000  0.10089000  1
  O  O479  1  0.33260000  0.58858000  0.05677000  1
  O  O480  1  0.41100000  0.48202000  0.58291000  1
  O  O481  1  0.33260000  0.53181000  0.58858000  1
  O  O482  1  0.41100000  0.10089000  0.51798000  1
  O  O483  1  0.33260000  0.05677000  0.46819000  1
  O  O484  1  0.41100000  0.41709000  0.89911000  1
  O  O485  1  0.33260000  0.41142000  0.94323000  1
  O  O486  1  0.58900000  0.10089000  0.58291000  1
  O  O487  1  0.66740000  0.05677000  0.58858000  1
  O  O488  1  0.58900000  0.41709000  0.51798000  1
  O  O489  1  0.66740000  0.41142000  0.46819000  1
  O  O490  1  0.58900000  0.48202000  0.89911000  1
  O  O491  1  0.66740000  0.53181000  0.94323000  1
  O  O492  1  0.58900000  0.89911000  0.41709000  1
  O  O493  1  0.66740000  0.94323000  0.41142000  1
  O  O494  1  0.58900000  0.58291000  0.48202000  1
  O  O495  1  0.66740000  0.58858000  0.53181000  1
  O  O496  1  0.58900000  0.51798000  0.10089000  1
  O  O497  1  0.66740000  0.46819000  0.05677000  1
  O  O498  1  0.61860000  0.48328000  0.51672000  1
  O  O499  1  0.61860000  0.03344000  0.51672000  1
  O  O500  1  0.61860000  0.48328000  0.96656000  1
  O  O501  1  0.61860000  0.51672000  0.48328000  1
  O  O502  1  0.61860000  0.96656000  0.48328000  1
  O  O503  1  0.61860000  0.51672000  0.03344000  1
  O  O504  1  0.38140000  0.96656000  0.48328000  1
  O  O505  1  0.38140000  0.51672000  0.48328000  1
  O  O506  1  0.38140000  0.51672000  0.03344000  1
  O  O507  1  0.38140000  0.03344000  0.51672000  1
  O  O508  1  0.38140000  0.48328000  0.51672000  1
  O  O509  1  0.38140000  0.48328000  0.96656000  1
  O  O510  1  0.50000000  0.52723000  0.56173000  1
  O  O511  1  0.50000000  0.03450000  0.47277000  1
  O  O512  1  0.50000000  0.43827000  0.96550000  1
  O  O513  1  0.50000000  0.47277000  0.43827000  1
  O  O514  1  0.50000000  0.96550000  0.52723000  1
  O  O515  1  0.50000000  0.56173000  0.03450000  1
  O  O516  1  0.50000000  0.96550000  0.43827000  1
  O  O517  1  0.50000000  0.56173000  0.52723000  1
  O  O518  1  0.50000000  0.47277000  0.03450000  1
  O  O519  1  0.50000000  0.03450000  0.56173000  1
  O  O520  1  0.50000000  0.43827000  0.47277000  1
  O  O521  1  0.50000000  0.52723000  0.96550000  1
  O  O522  1  0.76240000  0.53490000  0.53490000  1
  O  O523  1  0.76240000  1.00000000  0.46510000  1
  O  O524  1  0.76240000  0.46510000  0.00000000  1
  O  O525  1  0.76240000  0.46510000  0.46510000  1
  O  O526  1  0.76240000  0.00000000  0.53490000  1
  O  O527  1  0.76240000  0.53490000  1.00000000  1
  O  O528  1  0.23760000  1.00000000  0.46510000  1
  O  O529  1  0.23760000  0.53490000  0.53490000  1
  O  O530  1  0.23760000  0.46510000  0.00000000  1
  O  O531  1  0.23760000  0.00000000  0.53490000  1
  O  O532  1  0.23760000  0.46510000  0.46510000  1
  O  O533  1  0.23760000  0.53490000  1.00000000  1
