# generated using pymatgen
data_Zr12H92C162N23O64
_symmetry_space_group_name_H-M   'P 1'
_cell_length_a   29.32480000
_cell_length_b   29.32480000
_cell_length_c   29.32480000
_cell_angle_alpha   90.00000000
_cell_angle_beta   90.00000000
_cell_angle_gamma   90.00000000
_symmetry_Int_Tables_number   1
_chemical_formula_structural   Zr12H92C162N23O64
_chemical_formula_sum   'Zr24 H184 C324 N46 O128'
_cell_volume   25217.68273327
_cell_formula_units_Z   2
loop_
 _symmetry_equiv_pos_site_id
 _symmetry_equiv_pos_as_xyz
  1  'x, y, z'
loop_
 _atom_site_type_symbol
 _atom_site_label
 _atom_site_symmetry_multiplicity
 _atom_site_fract_x
 _atom_site_fract_y
 _atom_site_fract_z
 _atom_site_occupancy
  Zr  Zr0  1  0.58370000  0.50000000  0.50000000  1
  Zr  Zr1  1  0.58370000  0.00000000  0.00000000  1
  Zr  Zr2  1  0.08370000  0.50000000  0.00000000  1
  Zr  Zr3  1  0.08370000  0.00000000  0.50000000  1
  Zr  Zr4  1  0.41630000  0.50000000  0.50000000  1
  Zr  Zr5  1  0.41630000  0.00000000  0.00000000  1
  Zr  Zr6  1  0.91630000  0.50000000  0.00000000  1
  Zr  Zr7  1  0.91630000  0.00000000  0.50000000  1
  Zr  Zr8  1  0.50000000  0.58370000  0.50000000  1
  Zr  Zr9  1  0.50000000  0.08370000  0.00000000  1
  Zr  Zr10  1  0.00000000  0.58370000  0.00000000  1
  Zr  Zr11  1  0.00000000  0.08370000  0.50000000  1
  Zr  Zr12  1  0.50000000  0.41630000  0.50000000  1
  Zr  Zr13  1  0.50000000  0.91630000  0.00000000  1
  Zr  Zr14  1  0.00000000  0.41630000  0.00000000  1
  Zr  Zr15  1  0.00000000  0.91630000  0.50000000  1
  Zr  Zr16  1  0.50000000  0.50000000  0.58370000  1
  Zr  Zr17  1  0.50000000  0.00000000  0.08370000  1
  Zr  Zr18  1  0.00000000  0.50000000  0.08370000  1
  Zr  Zr19  1  0.00000000  0.00000000  0.58370000  1
  Zr  Zr20  1  0.50000000  0.50000000  0.41630000  1
  Zr  Zr21  1  0.50000000  0.00000000  0.91630000  1
  Zr  Zr22  1  0.00000000  0.50000000  0.91630000  1
  Zr  Zr23  1  0.00000000  0.00000000  0.41630000  1
  H  H24  1  0.60230000  0.69440000  0.52240000  1
  H  H25  1  0.65860000  0.75060000  0.52250000  1
  H  H26  1  0.10230000  0.69440000  0.02240000  1
  H  H27  1  0.15860000  0.75060000  0.02250000  1
  H  H28  1  0.89770000  0.30560000  0.02240000  1
  H  H29  1  0.84140000  0.24940000  0.02250000  1
  H  H30  1  0.89770000  0.80560000  0.52240000  1
  H  H31  1  0.84140000  0.74940000  0.52250000  1
  H  H32  1  0.89770000  0.19440000  0.47760000  1
  H  H33  1  0.84140000  0.25060000  0.47750000  1
  H  H34  1  0.60230000  0.30560000  0.47760000  1
  H  H35  1  0.65860000  0.24940000  0.47750000  1
  H  H36  1  0.52240000  0.60230000  0.69440000  1
  H  H37  1  0.52250000  0.65860000  0.75060000  1
  H  H38  1  0.02240000  0.60230000  0.19440000  1
  H  H39  1  0.02250000  0.65860000  0.25060000  1
  H  H40  1  0.52240000  0.89770000  0.80560000  1
  H  H41  1  0.52250000  0.84140000  0.74940000  1
  H  H42  1  0.02240000  0.89770000  0.30560000  1
  H  H43  1  0.02250000  0.84140000  0.24940000  1
  H  H44  1  0.47760000  0.89770000  0.19440000  1
  H  H45  1  0.47750000  0.84140000  0.25060000  1
  H  H46  1  0.47760000  0.60230000  0.30560000  1
  H  H47  1  0.47750000  0.65860000  0.24940000  1
  H  H48  1  0.69440000  0.52240000  0.60230000  1
  H  H49  1  0.75060000  0.52250000  0.65860000  1
  H  H50  1  0.80560000  0.52240000  0.89770000  1
  H  H51  1  0.74940000  0.52250000  0.84140000  1
  H  H52  1  0.19440000  0.97760000  0.39770000  1
  H  H53  1  0.25060000  0.97750000  0.34140000  1
  H  H54  1  0.30560000  0.97760000  0.10230000  1
  H  H55  1  0.24940000  0.97750000  0.15860000  1
  H  H56  1  0.69440000  0.60230000  0.47760000  1
  H  H57  1  0.75060000  0.65860000  0.47750000  1
  H  H58  1  0.19440000  0.60230000  0.97760000  1
  H  H59  1  0.25060000  0.65860000  0.97750000  1
  H  H60  1  0.80560000  0.39770000  0.97760000  1
  H  H61  1  0.74940000  0.34140000  0.97750000  1
  H  H62  1  0.80560000  0.89770000  0.47760000  1
  H  H63  1  0.74940000  0.84140000  0.47750000  1
  H  H64  1  0.69440000  0.39770000  0.52240000  1
  H  H65  1  0.75060000  0.34140000  0.52250000  1
  H  H66  1  0.80560000  0.10230000  0.52240000  1
  H  H67  1  0.74940000  0.15860000  0.52250000  1
  H  H68  1  0.10230000  0.02240000  0.30560000  1
  H  H69  1  0.15860000  0.02250000  0.24940000  1
  H  H70  1  0.39770000  0.02240000  0.19440000  1
  H  H71  1  0.34140000  0.02250000  0.25060000  1
  H  H72  1  0.89770000  0.47760000  0.80560000  1
  H  H73  1  0.84140000  0.47750000  0.74940000  1
  H  H74  1  0.60230000  0.47760000  0.69440000  1
  H  H75  1  0.65860000  0.47750000  0.75060000  1
  H  H76  1  0.52240000  0.69440000  0.39770000  1
  H  H77  1  0.52250000  0.75060000  0.34140000  1
  H  H78  1  0.52240000  0.80560000  0.10230000  1
  H  H79  1  0.52250000  0.74940000  0.15860000  1
  H  H80  1  0.47760000  0.69440000  0.60230000  1
  H  H81  1  0.47750000  0.75060000  0.65860000  1
  H  H82  1  0.97760000  0.69440000  0.10230000  1
  H  H83  1  0.97750000  0.75060000  0.15860000  1
  H  H84  1  0.47760000  0.80560000  0.89770000  1
  H  H85  1  0.47750000  0.74940000  0.84140000  1
  H  H86  1  0.97760000  0.80560000  0.39770000  1
  H  H87  1  0.97750000  0.74940000  0.34140000  1
  H  H88  1  0.97760000  0.39770000  0.80560000  1
  H  H89  1  0.97750000  0.34140000  0.74940000  1
  H  H90  1  0.97760000  0.10230000  0.69440000  1
  H  H91  1  0.97750000  0.15860000  0.75060000  1
  H  H92  1  0.30560000  0.47760000  0.39770000  1
  H  H93  1  0.24940000  0.47750000  0.34140000  1
  H  H94  1  0.19440000  0.47760000  0.10230000  1
  H  H95  1  0.25060000  0.47750000  0.15860000  1
  H  H96  1  0.80560000  0.02240000  0.60230000  1
  H  H97  1  0.74940000  0.02250000  0.65860000  1
  H  H98  1  0.69440000  0.02240000  0.89770000  1
  H  H99  1  0.75060000  0.02250000  0.84140000  1
  H  H100  1  0.89770000  0.97760000  0.69440000  1
  H  H101  1  0.84140000  0.97750000  0.75060000  1
  H  H102  1  0.60230000  0.97760000  0.80560000  1
  H  H103  1  0.65860000  0.97750000  0.74940000  1
  H  H104  1  0.10230000  0.52240000  0.19440000  1
  H  H105  1  0.15860000  0.52250000  0.25060000  1
  H  H106  1  0.39770000  0.52240000  0.30560000  1
  H  H107  1  0.34140000  0.52250000  0.24940000  1
  H  H108  1  0.02240000  0.30560000  0.89770000  1
  H  H109  1  0.02250000  0.24940000  0.84140000  1
  H  H110  1  0.02240000  0.19440000  0.60230000  1
  H  H111  1  0.02250000  0.25060000  0.65860000  1
  H  H112  1  0.59970000  0.19710000  0.00000000  1
  H  H113  1  0.65580000  0.25330000  0.00000000  1
  H  H114  1  0.40030000  0.80290000  0.00000000  1
  H  H115  1  0.34420000  0.74670000  0.00000000  1
  H  H116  1  0.40030000  0.69710000  0.50000000  1
  H  H117  1  0.34420000  0.75330000  0.50000000  1
  H  H118  1  0.40030000  0.19710000  0.00000000  1
  H  H119  1  0.34420000  0.25330000  0.00000000  1
  H  H120  1  0.90030000  0.69710000  0.00000000  1
  H  H121  1  0.84420000  0.75330000  0.00000000  1
  H  H122  1  0.59970000  0.80290000  0.00000000  1
  H  H123  1  0.65580000  0.74670000  0.00000000  1
  H  H124  1  0.09970000  0.30290000  0.00000000  1
  H  H125  1  0.15580000  0.24670000  0.00000000  1
  H  H126  1  0.09970000  0.80290000  0.50000000  1
  H  H127  1  0.15580000  0.74670000  0.50000000  1
  H  H128  1  0.50000000  0.09970000  0.19710000  1
  H  H129  1  0.50000000  0.15580000  0.25330000  1
  H  H130  1  0.50000000  0.40030000  0.30290000  1
  H  H131  1  0.50000000  0.34420000  0.24670000  1
  H  H132  1  0.50000000  0.40030000  0.69710000  1
  H  H133  1  0.50000000  0.34420000  0.75330000  1
  H  H134  1  0.00000000  0.40030000  0.19710000  1
  H  H135  1  0.00000000  0.34420000  0.25330000  1
  H  H136  1  0.00000000  0.90030000  0.69710000  1
  H  H137  1  0.00000000  0.84420000  0.75330000  1
  H  H138  1  0.50000000  0.09970000  0.80290000  1
  H  H139  1  0.50000000  0.15580000  0.74670000  1
  H  H140  1  0.00000000  0.59970000  0.80290000  1
  H  H141  1  0.00000000  0.65580000  0.74670000  1
  H  H142  1  0.00000000  0.09970000  0.30290000  1
  H  H143  1  0.00000000  0.15580000  0.24670000  1
  H  H144  1  0.69710000  0.00000000  0.09970000  1
  H  H145  1  0.75330000  0.00000000  0.15580000  1
  H  H146  1  0.19710000  0.00000000  0.59970000  1
  H  H147  1  0.25330000  0.00000000  0.65580000  1
  H  H148  1  0.30290000  0.00000000  0.90030000  1
  H  H149  1  0.24670000  0.00000000  0.84420000  1
  H  H150  1  0.80290000  0.00000000  0.40030000  1
  H  H151  1  0.74670000  0.00000000  0.34420000  1
  H  H152  1  0.69710000  0.50000000  0.40030000  1
  H  H153  1  0.75330000  0.50000000  0.34420000  1
  H  H154  1  0.19710000  0.50000000  0.90030000  1
  H  H155  1  0.25330000  0.50000000  0.84420000  1
  H  H156  1  0.30290000  0.50000000  0.59970000  1
  H  H157  1  0.24670000  0.50000000  0.65580000  1
  H  H158  1  0.80290000  0.50000000  0.09970000  1
  H  H159  1  0.74670000  0.50000000  0.15580000  1
  H  H160  1  0.69710000  0.09970000  0.00000000  1
  H  H161  1  0.75330000  0.15580000  0.00000000  1
  H  H162  1  0.30290000  0.90030000  0.00000000  1
  H  H163  1  0.24670000  0.84420000  0.00000000  1
  H  H164  1  0.69710000  0.90030000  0.00000000  1
  H  H165  1  0.75330000  0.84420000  0.00000000  1
  H  H166  1  0.19710000  0.40030000  0.00000000  1
  H  H167  1  0.25330000  0.34420000  0.00000000  1
  H  H168  1  0.19710000  0.90030000  0.50000000  1
  H  H169  1  0.25330000  0.84420000  0.50000000  1
  H  H170  1  0.30290000  0.59970000  0.50000000  1
  H  H171  1  0.24670000  0.65580000  0.50000000  1
  H  H172  1  0.30290000  0.09970000  0.00000000  1
  H  H173  1  0.24670000  0.15580000  0.00000000  1
  H  H174  1  0.80290000  0.59970000  0.00000000  1
  H  H175  1  0.74670000  0.65580000  0.00000000  1
  H  H176  1  0.59970000  0.50000000  0.30290000  1
  H  H177  1  0.65580000  0.50000000  0.24670000  1
  H  H178  1  0.09970000  0.50000000  0.80290000  1
  H  H179  1  0.15580000  0.50000000  0.74670000  1
  H  H180  1  0.40030000  0.50000000  0.69710000  1
  H  H181  1  0.34420000  0.50000000  0.75330000  1
  H  H182  1  0.90030000  0.50000000  0.19710000  1
  H  H183  1  0.84420000  0.50000000  0.25330000  1
  H  H184  1  0.40030000  0.00000000  0.80290000  1
  H  H185  1  0.34420000  0.00000000  0.74670000  1
  H  H186  1  0.90030000  0.00000000  0.30290000  1
  H  H187  1  0.84420000  0.00000000  0.24670000  1
  H  H188  1  0.59970000  0.00000000  0.19710000  1
  H  H189  1  0.65580000  0.00000000  0.25330000  1
  H  H190  1  0.09970000  0.00000000  0.69710000  1
  H  H191  1  0.15580000  0.00000000  0.75330000  1
  H  H192  1  0.50000000  0.19710000  0.90030000  1
  H  H193  1  0.50000000  0.25330000  0.84420000  1
  H  H194  1  0.00000000  0.69710000  0.90030000  1
  H  H195  1  0.00000000  0.75330000  0.84420000  1
  H  H196  1  0.00000000  0.19710000  0.40030000  1
  H  H197  1  0.00000000  0.25330000  0.34420000  1
  H  H198  1  0.50000000  0.30290000  0.59970000  1
  H  H199  1  0.50000000  0.24670000  0.65580000  1
  H  H200  1  0.00000000  0.30290000  0.09970000  1
  H  H201  1  0.00000000  0.24670000  0.15580000  1
  H  H202  1  0.00000000  0.80290000  0.59970000  1
  H  H203  1  0.00000000  0.74670000  0.65580000  1
  H  H204  1  0.50000000  0.19710000  0.09970000  1
  H  H205  1  0.50000000  0.25330000  0.15580000  1
  H  H206  1  0.50000000  0.30290000  0.40030000  1
  H  H207  1  0.50000000  0.24670000  0.34420000  1
  C  C208  1  0.63230000  0.68750000  0.51220000  1
  C  C209  1  0.66540000  0.72070000  0.51220000  1
  C  C210  1  0.13230000  0.68750000  0.01220000  1
  C  C211  1  0.16540000  0.72070000  0.01220000  1
  C  C212  1  0.86770000  0.31250000  0.01220000  1
  C  C213  1  0.83460000  0.27930000  0.01220000  1
  C  C214  1  0.86770000  0.81250000  0.51220000  1
  C  C215  1  0.83460000  0.77930000  0.51220000  1
  C  C216  1  0.86770000  0.18750000  0.48780000  1
  C  C217  1  0.83460000  0.22070000  0.48780000  1
  C  C218  1  0.63230000  0.31250000  0.48780000  1
  C  C219  1  0.66540000  0.27930000  0.48780000  1
  C  C220  1  0.51220000  0.63230000  0.68750000  1
  C  C221  1  0.51220000  0.66540000  0.72070000  1
  C  C222  1  0.01220000  0.63230000  0.18750000  1
  C  C223  1  0.01220000  0.66540000  0.22070000  1
  C  C224  1  0.51220000  0.86770000  0.81250000  1
  C  C225  1  0.51220000  0.83460000  0.77930000  1
  C  C226  1  0.01220000  0.86770000  0.31250000  1
  C  C227  1  0.01220000  0.83460000  0.27930000  1
  C  C228  1  0.48780000  0.86770000  0.18750000  1
  C  C229  1  0.48780000  0.83460000  0.22070000  1
  C  C230  1  0.48780000  0.63230000  0.31250000  1
  C  C231  1  0.48780000  0.66540000  0.27930000  1
  C  C232  1  0.68750000  0.51220000  0.63230000  1
  C  C233  1  0.72070000  0.51220000  0.66540000  1
  C  C234  1  0.81250000  0.51220000  0.86770000  1
  C  C235  1  0.77930000  0.51220000  0.83460000  1
  C  C236  1  0.18750000  0.98780000  0.36770000  1
  C  C237  1  0.22070000  0.98780000  0.33460000  1
  C  C238  1  0.31250000  0.98780000  0.13230000  1
  C  C239  1  0.27930000  0.98780000  0.16540000  1
  C  C240  1  0.68750000  0.63230000  0.48780000  1
  C  C241  1  0.72070000  0.66540000  0.48780000  1
  C  C242  1  0.18750000  0.63230000  0.98780000  1
  C  C243  1  0.22070000  0.66540000  0.98780000  1
  C  C244  1  0.81250000  0.36770000  0.98780000  1
  C  C245  1  0.77930000  0.33460000  0.98780000  1
  C  C246  1  0.81250000  0.86770000  0.48780000  1
  C  C247  1  0.77930000  0.83460000  0.48780000  1
  C  C248  1  0.68750000  0.36770000  0.51220000  1
  C  C249  1  0.72070000  0.33460000  0.51220000  1
  C  C250  1  0.81250000  0.13230000  0.51220000  1
  C  C251  1  0.77930000  0.16540000  0.51220000  1
  C  C252  1  0.13230000  0.01220000  0.31250000  1
  C  C253  1  0.16540000  0.01220000  0.27930000  1
  C  C254  1  0.36770000  0.01220000  0.18750000  1
  C  C255  1  0.33460000  0.01220000  0.22070000  1
  C  C256  1  0.86770000  0.48780000  0.81250000  1
  C  C257  1  0.83460000  0.48780000  0.77930000  1
  C  C258  1  0.63230000  0.48780000  0.68750000  1
  C  C259  1  0.66540000  0.48780000  0.72070000  1
  C  C260  1  0.51220000  0.68750000  0.36770000  1
  C  C261  1  0.51220000  0.72070000  0.33460000  1
  C  C262  1  0.51220000  0.81250000  0.13230000  1
  C  C263  1  0.51220000  0.77930000  0.16540000  1
  C  C264  1  0.48780000  0.68750000  0.63230000  1
  C  C265  1  0.48780000  0.72070000  0.66540000  1
  C  C266  1  0.98780000  0.68750000  0.13230000  1
  C  C267  1  0.98780000  0.72070000  0.16540000  1
  C  C268  1  0.48780000  0.81250000  0.86770000  1
  C  C269  1  0.48780000  0.77930000  0.83460000  1
  C  C270  1  0.98780000  0.81250000  0.36770000  1
  C  C271  1  0.98780000  0.77930000  0.33460000  1
  C  C272  1  0.98780000  0.36770000  0.81250000  1
  C  C273  1  0.98780000  0.33460000  0.77930000  1
  C  C274  1  0.98780000  0.13230000  0.68750000  1
  C  C275  1  0.98780000  0.16540000  0.72070000  1
  C  C276  1  0.31250000  0.48780000  0.36770000  1
  C  C277  1  0.27930000  0.48780000  0.33460000  1
  C  C278  1  0.18750000  0.48780000  0.13230000  1
  C  C279  1  0.22070000  0.48780000  0.16540000  1
  C  C280  1  0.81250000  0.01220000  0.63230000  1
  C  C281  1  0.77930000  0.01220000  0.66540000  1
  C  C282  1  0.68750000  0.01220000  0.86770000  1
  C  C283  1  0.72070000  0.01220000  0.83460000  1
  C  C284  1  0.86770000  0.98780000  0.68750000  1
  C  C285  1  0.83460000  0.98780000  0.72070000  1
  C  C286  1  0.63230000  0.98780000  0.81250000  1
  C  C287  1  0.66540000  0.98780000  0.77930000  1
  C  C288  1  0.13230000  0.51220000  0.18750000  1
  C  C289  1  0.16540000  0.51220000  0.22070000  1
  C  C290  1  0.36770000  0.51220000  0.31250000  1
  C  C291  1  0.33460000  0.51220000  0.27930000  1
  C  C292  1  0.01220000  0.31250000  0.86770000  1
  C  C293  1  0.01220000  0.27930000  0.83460000  1
  C  C294  1  0.01220000  0.18750000  0.63230000  1
  C  C295  1  0.01220000  0.22070000  0.66540000  1
  C  C296  1  0.63100000  0.18880000  0.00000000  1
  C  C297  1  0.66410000  0.22200000  0.00000000  1
  C  C298  1  0.36900000  0.81120000  0.00000000  1
  C  C299  1  0.33590000  0.77800000  0.00000000  1
  C  C300  1  0.36900000  0.68880000  0.50000000  1
  C  C301  1  0.33590000  0.72200000  0.50000000  1
  C  C302  1  0.36900000  0.18880000  0.00000000  1
  C  C303  1  0.33590000  0.22200000  0.00000000  1
  C  C304  1  0.86900000  0.68880000  0.00000000  1
  C  C305  1  0.83590000  0.72200000  0.00000000  1
  C  C306  1  0.63100000  0.81120000  0.00000000  1
  C  C307  1  0.66410000  0.77800000  0.00000000  1
  C  C308  1  0.13100000  0.31120000  0.00000000  1
  C  C309  1  0.16410000  0.27800000  0.00000000  1
  C  C310  1  0.13100000  0.81120000  0.50000000  1
  C  C311  1  0.16410000  0.77800000  0.50000000  1
  C  C312  1  0.50000000  0.13100000  0.18880000  1
  C  C313  1  0.50000000  0.16410000  0.22200000  1
  C  C314  1  0.50000000  0.36900000  0.31120000  1
  C  C315  1  0.50000000  0.33590000  0.27800000  1
  C  C316  1  0.50000000  0.36900000  0.68880000  1
  C  C317  1  0.50000000  0.33590000  0.72200000  1
  C  C318  1  0.00000000  0.36900000  0.18880000  1
  C  C319  1  0.00000000  0.33590000  0.22200000  1
  C  C320  1  0.00000000  0.86900000  0.68880000  1
  C  C321  1  0.00000000  0.83590000  0.72200000  1
  C  C322  1  0.50000000  0.13100000  0.81120000  1
  C  C323  1  0.50000000  0.16410000  0.77800000  1
  C  C324  1  0.00000000  0.63100000  0.81120000  1
  C  C325  1  0.00000000  0.66410000  0.77800000  1
  C  C326  1  0.00000000  0.13100000  0.31120000  1
  C  C327  1  0.00000000  0.16410000  0.27800000  1
  C  C328  1  0.68880000  0.00000000  0.13100000  1
  C  C329  1  0.72200000  0.00000000  0.16410000  1
  C  C330  1  0.18880000  0.00000000  0.63100000  1
  C  C331  1  0.22200000  0.00000000  0.66410000  1
  C  C332  1  0.31120000  0.00000000  0.86900000  1
  C  C333  1  0.27800000  0.00000000  0.83590000  1
  C  C334  1  0.81120000  0.00000000  0.36900000  1
  C  C335  1  0.77800000  0.00000000  0.33590000  1
  C  C336  1  0.68880000  0.50000000  0.36900000  1
  C  C337  1  0.72200000  0.50000000  0.33590000  1
  C  C338  1  0.18880000  0.50000000  0.86900000  1
  C  C339  1  0.22200000  0.50000000  0.83590000  1
  C  C340  1  0.31120000  0.50000000  0.63100000  1
  C  C341  1  0.27800000  0.50000000  0.66410000  1
  C  C342  1  0.81120000  0.50000000  0.13100000  1
  C  C343  1  0.77800000  0.50000000  0.16410000  1
  C  C344  1  0.68880000  0.13100000  0.00000000  1
  C  C345  1  0.72200000  0.16410000  0.00000000  1
  C  C346  1  0.31120000  0.86900000  0.00000000  1
  C  C347  1  0.27800000  0.83590000  0.00000000  1
  C  C348  1  0.68880000  0.86900000  0.00000000  1
  C  C349  1  0.72200000  0.83590000  0.00000000  1
  C  C350  1  0.18880000  0.36900000  0.00000000  1
  C  C351  1  0.22200000  0.33590000  0.00000000  1
  C  C352  1  0.18880000  0.86900000  0.50000000  1
  C  C353  1  0.22200000  0.83590000  0.50000000  1
  C  C354  1  0.31120000  0.63100000  0.50000000  1
  C  C355  1  0.27800000  0.66410000  0.50000000  1
  C  C356  1  0.31120000  0.13100000  0.00000000  1
  C  C357  1  0.27800000  0.16410000  0.00000000  1
  C  C358  1  0.81120000  0.63100000  0.00000000  1
  C  C359  1  0.77800000  0.66410000  0.00000000  1
  C  C360  1  0.63100000  0.50000000  0.31120000  1
  C  C361  1  0.66410000  0.50000000  0.27800000  1
  C  C362  1  0.13100000  0.50000000  0.81120000  1
  C  C363  1  0.16410000  0.50000000  0.77800000  1
  C  C364  1  0.36900000  0.50000000  0.68880000  1
  C  C365  1  0.33590000  0.50000000  0.72200000  1
  C  C366  1  0.86900000  0.50000000  0.18880000  1
  C  C367  1  0.83590000  0.50000000  0.22200000  1
  C  C368  1  0.36900000  0.00000000  0.81120000  1
  C  C369  1  0.33590000  0.00000000  0.77800000  1
  C  C370  1  0.86900000  0.00000000  0.31120000  1
  C  C371  1  0.83590000  0.00000000  0.27800000  1
  C  C372  1  0.63100000  0.00000000  0.18880000  1
  C  C373  1  0.66410000  0.00000000  0.22200000  1
  C  C374  1  0.13100000  0.00000000  0.68880000  1
  C  C375  1  0.16410000  0.00000000  0.72200000  1
  C  C376  1  0.50000000  0.18880000  0.86900000  1
  C  C377  1  0.50000000  0.22200000  0.83590000  1
  C  C378  1  0.00000000  0.68880000  0.86900000  1
  C  C379  1  0.00000000  0.72200000  0.83590000  1
  C  C380  1  0.00000000  0.18880000  0.36900000  1
  C  C381  1  0.00000000  0.22200000  0.33590000  1
  C  C382  1  0.50000000  0.31120000  0.63100000  1
  C  C383  1  0.50000000  0.27800000  0.66410000  1
  C  C384  1  0.00000000  0.31120000  0.13100000  1
  C  C385  1  0.00000000  0.27800000  0.16410000  1
  C  C386  1  0.00000000  0.81120000  0.63100000  1
  C  C387  1  0.00000000  0.77800000  0.66410000  1
  C  C388  1  0.50000000  0.18880000  0.13100000  1
  C  C389  1  0.50000000  0.22200000  0.16410000  1
  C  C390  1  0.50000000  0.31120000  0.36900000  1
  C  C391  1  0.50000000  0.27800000  0.33590000  1
  C  C392  1  0.60820000  0.60820000  0.50000000  1
  C  C393  1  0.64360000  0.64360000  0.50000000  1
  C  C394  1  0.70940000  0.70940000  0.50000000  1
  C  C395  1  0.60820000  0.10820000  0.00000000  1
  C  C396  1  0.64360000  0.14360000  0.00000000  1
  C  C397  1  0.70940000  0.20940000  0.00000000  1
  C  C398  1  0.10820000  0.60820000  0.00000000  1
  C  C399  1  0.14360000  0.64360000  0.00000000  1
  C  C400  1  0.20940000  0.70940000  0.00000000  1
  C  C401  1  0.10820000  0.10820000  0.50000000  1
  C  C402  1  0.39180000  0.39180000  0.50000000  1
  C  C403  1  0.39180000  0.89180000  0.00000000  1
  C  C404  1  0.35640000  0.85640000  0.00000000  1
  C  C405  1  0.29060000  0.79060000  0.00000000  1
  C  C406  1  0.89180000  0.39180000  0.00000000  1
  C  C407  1  0.85640000  0.35640000  0.00000000  1
  C  C408  1  0.79060000  0.29060000  0.00000000  1
  C  C409  1  0.89180000  0.89180000  0.50000000  1
  C  C410  1  0.85640000  0.85640000  0.50000000  1
  C  C411  1  0.79060000  0.79060000  0.50000000  1
  C  C412  1  0.39180000  0.60820000  0.50000000  1
  C  C413  1  0.35640000  0.64360000  0.50000000  1
  C  C414  1  0.29060000  0.70940000  0.50000000  1
  C  C415  1  0.39180000  0.10820000  0.00000000  1
  C  C416  1  0.35640000  0.14360000  0.00000000  1
  C  C417  1  0.29060000  0.20940000  0.00000000  1
  C  C418  1  0.89180000  0.60820000  0.00000000  1
  C  C419  1  0.85640000  0.64360000  0.00000000  1
  C  C420  1  0.79060000  0.70940000  0.00000000  1
  C  C421  1  0.89180000  0.10820000  0.50000000  1
  C  C422  1  0.85640000  0.14360000  0.50000000  1
  C  C423  1  0.79060000  0.20940000  0.50000000  1
  C  C424  1  0.60820000  0.39180000  0.50000000  1
  C  C425  1  0.64360000  0.35640000  0.50000000  1
  C  C426  1  0.70940000  0.29060000  0.50000000  1
  C  C427  1  0.60820000  0.89180000  0.00000000  1
  C  C428  1  0.64360000  0.85640000  0.00000000  1
  C  C429  1  0.70940000  0.79060000  0.00000000  1
  C  C430  1  0.10820000  0.39180000  0.00000000  1
  C  C431  1  0.14360000  0.35640000  0.00000000  1
  C  C432  1  0.20940000  0.29060000  0.00000000  1
  C  C433  1  0.10820000  0.89180000  0.50000000  1
  C  C434  1  0.14360000  0.85640000  0.50000000  1
  C  C435  1  0.20940000  0.79060000  0.50000000  1
  C  C436  1  0.50000000  0.60820000  0.60820000  1
  C  C437  1  0.50000000  0.64360000  0.64360000  1
  C  C438  1  0.50000000  0.70940000  0.70940000  1
  C  C439  1  0.50000000  0.10820000  0.10820000  1
  C  C440  1  0.50000000  0.14360000  0.14360000  1
  C  C441  1  0.50000000  0.20940000  0.20940000  1
  C  C442  1  0.00000000  0.60820000  0.10820000  1
  C  C443  1  0.00000000  0.64360000  0.14360000  1
  C  C444  1  0.00000000  0.70940000  0.20940000  1
  C  C445  1  0.00000000  0.10820000  0.60820000  1
  C  C446  1  0.00000000  0.14360000  0.64360000  1
  C  C447  1  0.00000000  0.20940000  0.70940000  1
  C  C448  1  0.50000000  0.39180000  0.39180000  1
  C  C449  1  0.50000000  0.35640000  0.35640000  1
  C  C450  1  0.50000000  0.29060000  0.29060000  1
  C  C451  1  0.50000000  0.89180000  0.89180000  1
  C  C452  1  0.50000000  0.85640000  0.85640000  1
  C  C453  1  0.50000000  0.79060000  0.79060000  1
  C  C454  1  0.00000000  0.39180000  0.89180000  1
  C  C455  1  0.00000000  0.35640000  0.85640000  1
  C  C456  1  0.00000000  0.29060000  0.79060000  1
  C  C457  1  0.00000000  0.89180000  0.39180000  1
  C  C458  1  0.00000000  0.85640000  0.35640000  1
  C  C459  1  0.00000000  0.79060000  0.29060000  1
  C  C460  1  0.50000000  0.39180000  0.60820000  1
  C  C461  1  0.50000000  0.35640000  0.64360000  1
  C  C462  1  0.50000000  0.29060000  0.70940000  1
  C  C463  1  0.50000000  0.89180000  0.10820000  1
  C  C464  1  0.50000000  0.85640000  0.14360000  1
  C  C465  1  0.50000000  0.79060000  0.20940000  1
  C  C466  1  0.00000000  0.39180000  0.10820000  1
  C  C467  1  0.00000000  0.35640000  0.14360000  1
  C  C468  1  0.00000000  0.29060000  0.20940000  1
  C  C469  1  0.00000000  0.89180000  0.60820000  1
  C  C470  1  0.00000000  0.85640000  0.64360000  1
  C  C471  1  0.00000000  0.79060000  0.70940000  1
  C  C472  1  0.50000000  0.60820000  0.39180000  1
  C  C473  1  0.50000000  0.64360000  0.35640000  1
  C  C474  1  0.50000000  0.70940000  0.29060000  1
  C  C475  1  0.50000000  0.10820000  0.89180000  1
  C  C476  1  0.50000000  0.14360000  0.85640000  1
  C  C477  1  0.50000000  0.20940000  0.79060000  1
  C  C478  1  0.00000000  0.60820000  0.89180000  1
  C  C479  1  0.00000000  0.64360000  0.85640000  1
  C  C480  1  0.00000000  0.70940000  0.79060000  1
  C  C481  1  0.00000000  0.10820000  0.39180000  1
  C  C482  1  0.00000000  0.14360000  0.35640000  1
  C  C483  1  0.00000000  0.20940000  0.29060000  1
  C  C484  1  0.60820000  0.50000000  0.60820000  1
  C  C485  1  0.64360000  0.50000000  0.64360000  1
  C  C486  1  0.70940000  0.50000000  0.70940000  1
  C  C487  1  0.60820000  0.00000000  0.10820000  1
  C  C488  1  0.64360000  0.00000000  0.14360000  1
  C  C489  1  0.70940000  0.00000000  0.20940000  1
  C  C490  1  0.10820000  0.50000000  0.10820000  1
  C  C491  1  0.14360000  0.50000000  0.14360000  1
  C  C492  1  0.20940000  0.50000000  0.20940000  1
  C  C493  1  0.10820000  0.00000000  0.60820000  1
  C  C494  1  0.14360000  0.00000000  0.64360000  1
  C  C495  1  0.20940000  0.00000000  0.70940000  1
  C  C496  1  0.39180000  0.50000000  0.39180000  1
  C  C497  1  0.35640000  0.50000000  0.35640000  1
  C  C498  1  0.29060000  0.50000000  0.29060000  1
  C  C499  1  0.39180000  0.00000000  0.89180000  1
  C  C500  1  0.35640000  0.00000000  0.85640000  1
  C  C501  1  0.29060000  0.00000000  0.79060000  1
  C  C502  1  0.89180000  0.50000000  0.89180000  1
  C  C503  1  0.85640000  0.50000000  0.85640000  1
  C  C504  1  0.79060000  0.50000000  0.79060000  1
  C  C505  1  0.89180000  0.00000000  0.39180000  1
  C  C506  1  0.85640000  0.00000000  0.35640000  1
  C  C507  1  0.79060000  0.00000000  0.29060000  1
  C  C508  1  0.60820000  0.50000000  0.39180000  1
  C  C509  1  0.64360000  0.50000000  0.35640000  1
  C  C510  1  0.70940000  0.50000000  0.29060000  1
  C  C511  1  0.60820000  0.00000000  0.89180000  1
  C  C512  1  0.64360000  0.00000000  0.85640000  1
  C  C513  1  0.70940000  0.00000000  0.79060000  1
  C  C514  1  0.10820000  0.50000000  0.89180000  1
  C  C515  1  0.14360000  0.50000000  0.85640000  1
  C  C516  1  0.20940000  0.50000000  0.79060000  1
  C  C517  1  0.10820000  0.00000000  0.39180000  1
  C  C518  1  0.14360000  0.00000000  0.35640000  1
  C  C519  1  0.20940000  0.00000000  0.29060000  1
  C  C520  1  0.39180000  0.50000000  0.60820000  1
  C  C521  1  0.35640000  0.50000000  0.64360000  1
  C  C522  1  0.29060000  0.50000000  0.70940000  1
  C  C523  1  0.39180000  0.00000000  0.10820000  1
  C  C524  1  0.35640000  0.00000000  0.14360000  1
  C  C525  1  0.29060000  0.00000000  0.20940000  1
  C  C526  1  0.89180000  0.50000000  0.10820000  1
  C  C527  1  0.85640000  0.50000000  0.14360000  1
  C  C528  1  0.79060000  0.50000000  0.20940000  1
  C  C529  1  0.89180000  0.00000000  0.60820000  1
  C  C530  1  0.85640000  0.00000000  0.64360000  1
  C  C531  1  0.79060000  0.00000000  0.70940000  1
  N  N532  1  0.00750000  0.77750000  0.24410000  1
  N  N533  1  0.49250000  0.77750000  0.25590000  1
  N  N534  1  0.75590000  0.49250000  0.27750000  1
  N  N535  1  0.74410000  0.77750000  0.49250000  1
  N  N536  1  0.75590000  0.27750000  0.50750000  1
  N  N537  1  0.75590000  0.77750000  0.00750000  1
  N  N538  1  0.25590000  0.77750000  0.50750000  1
  N  N539  1  0.22250000  0.00750000  0.24410000  1
  N  N540  1  0.77750000  0.50750000  0.25590000  1
  N  N541  1  0.72250000  0.49250000  0.75590000  1
  N  N542  1  0.22250000  0.99250000  0.75590000  1
  N  N543  1  0.00750000  0.25590000  0.27750000  1
  N  N544  1  0.49250000  0.74410000  0.77750000  1
  N  N545  1  0.27750000  0.74410000  0.99250000  1
  N  N546  1  0.77750000  0.24410000  0.99250000  1
  N  N547  1  0.99250000  0.27750000  0.74410000  1
  N  N548  1  0.00750000  0.72250000  0.74410000  1
  N  N549  1  0.50750000  0.27750000  0.75590000  1
  N  N550  1  0.75590000  0.99250000  0.22250000  1
  N  N551  1  0.25590000  0.49250000  0.22250000  1
  N  N552  1  0.24410000  0.22250000  0.99250000  1
  N  N553  1  0.77750000  0.99250000  0.75590000  1
  N  N554  1  0.22250000  0.49250000  0.74410000  1
  N  N555  1  0.50750000  0.25590000  0.22250000  1
  N  N556  1  0.73680000  0.73680000  0.50000000  1
  N  N557  1  0.73680000  0.23680000  0.00000000  1
  N  N558  1  0.23680000  0.73680000  0.00000000  1
  N  N559  1  0.26320000  0.73680000  0.50000000  1
  N  N560  1  0.76320000  0.73680000  0.00000000  1
  N  N561  1  0.76320000  0.23680000  0.50000000  1
  N  N562  1  0.23680000  0.26320000  0.00000000  1
  N  N563  1  0.50000000  0.73680000  0.73680000  1
  N  N564  1  0.00000000  0.73680000  0.23680000  1
  N  N565  1  0.00000000  0.23680000  0.73680000  1
  N  N566  1  0.50000000  0.26320000  0.26320000  1
  N  N567  1  0.00000000  0.26320000  0.23680000  1
  N  N568  1  0.00000000  0.76320000  0.73680000  1
  N  N569  1  0.50000000  0.73680000  0.26320000  1
  N  N570  1  0.50000000  0.23680000  0.76320000  1
  N  N571  1  0.26320000  0.50000000  0.26320000  1
  N  N572  1  0.26320000  0.00000000  0.76320000  1
  N  N573  1  0.76320000  0.50000000  0.76320000  1
  N  N574  1  0.76320000  0.00000000  0.26320000  1
  N  N575  1  0.73680000  0.00000000  0.76320000  1
  N  N576  1  0.26320000  0.50000000  0.73680000  1
  N  N577  1  0.26320000  0.00000000  0.23680000  1
  O  O578  1  0.54050000  0.45950000  0.45950000  1
  O  O579  1  0.54050000  0.95950000  0.95950000  1
  O  O580  1  0.04050000  0.45950000  0.95950000  1
  O  O581  1  0.04050000  0.95950000  0.45950000  1
  O  O582  1  0.45950000  0.54050000  0.45950000  1
  O  O583  1  0.45950000  0.04050000  0.95950000  1
  O  O584  1  0.95950000  0.54050000  0.95950000  1
  O  O585  1  0.95950000  0.04050000  0.45950000  1
  O  O586  1  0.45950000  0.45950000  0.54050000  1
  O  O587  1  0.45950000  0.95950000  0.04050000  1
  O  O588  1  0.95950000  0.45950000  0.04050000  1
  O  O589  1  0.95950000  0.95950000  0.54050000  1
  O  O590  1  0.54050000  0.54050000  0.54050000  1
  O  O591  1  0.54050000  0.04050000  0.04050000  1
  O  O592  1  0.04050000  0.54050000  0.04050000  1
  O  O593  1  0.04050000  0.04050000  0.54050000  1
  O  O594  1  0.45950000  0.54050000  0.54050000  1
  O  O595  1  0.45950000  0.04050000  0.04050000  1
  O  O596  1  0.95950000  0.54050000  0.04050000  1
  O  O597  1  0.95950000  0.04050000  0.54050000  1
  O  O598  1  0.54050000  0.45950000  0.54050000  1
  O  O599  1  0.54050000  0.95950000  0.04050000  1
  O  O600  1  0.04050000  0.45950000  0.04050000  1
  O  O601  1  0.04050000  0.95950000  0.54050000  1
  O  O602  1  0.45950000  0.45950000  0.45950000  1
  O  O603  1  0.45950000  0.95950000  0.95950000  1
  O  O604  1  0.95950000  0.45950000  0.95950000  1
  O  O605  1  0.95950000  0.95950000  0.45950000  1
  O  O606  1  0.54050000  0.54050000  0.45950000  1
  O  O607  1  0.54050000  0.04050000  0.95950000  1
  O  O608  1  0.04050000  0.54050000  0.95950000  1
  O  O609  1  0.04050000  0.04050000  0.45950000  1
  O  O610  1  0.62130000  0.56620000  0.50000000  1
  O  O611  1  0.62130000  0.06620000  0.00000000  1
  O  O612  1  0.12130000  0.56620000  0.00000000  1
  O  O613  1  0.12130000  0.06620000  0.50000000  1
  O  O614  1  0.37870000  0.43380000  0.50000000  1
  O  O615  1  0.37870000  0.93380000  0.00000000  1
  O  O616  1  0.87870000  0.43380000  0.00000000  1
  O  O617  1  0.87870000  0.93380000  0.50000000  1
  O  O618  1  0.37870000  0.56620000  0.50000000  1
  O  O619  1  0.37870000  0.06620000  0.00000000  1
  O  O620  1  0.87870000  0.56620000  0.00000000  1
  O  O621  1  0.87870000  0.06620000  0.50000000  1
  O  O622  1  0.62130000  0.43380000  0.50000000  1
  O  O623  1  0.62130000  0.93380000  0.00000000  1
  O  O624  1  0.12130000  0.43380000  0.00000000  1
  O  O625  1  0.12130000  0.93380000  0.50000000  1
  O  O626  1  0.50000000  0.62130000  0.56620000  1
  O  O627  1  0.50000000  0.12130000  0.06620000  1
  O  O628  1  0.00000000  0.62130000  0.06620000  1
  O  O629  1  0.00000000  0.12130000  0.56620000  1
  O  O630  1  0.50000000  0.37870000  0.43380000  1
  O  O631  1  0.50000000  0.87870000  0.93380000  1
  O  O632  1  0.00000000  0.37870000  0.93380000  1
  O  O633  1  0.00000000  0.87870000  0.43380000  1
  O  O634  1  0.50000000  0.37870000  0.56620000  1
  O  O635  1  0.50000000  0.87870000  0.06620000  1
  O  O636  1  0.00000000  0.37870000  0.06620000  1
  O  O637  1  0.00000000  0.87870000  0.56620000  1
  O  O638  1  0.50000000  0.62130000  0.43380000  1
  O  O639  1  0.50000000  0.12130000  0.93380000  1
  O  O640  1  0.00000000  0.62130000  0.93380000  1
  O  O641  1  0.00000000  0.12130000  0.43380000  1
  O  O642  1  0.56620000  0.50000000  0.62130000  1
  O  O643  1  0.56620000  0.00000000  0.12130000  1
  O  O644  1  0.06620000  0.50000000  0.12130000  1
  O  O645  1  0.06620000  0.00000000  0.62130000  1
  O  O646  1  0.43380000  0.50000000  0.37870000  1
  O  O647  1  0.43380000  0.00000000  0.87870000  1
  O  O648  1  0.93380000  0.50000000  0.87870000  1
  O  O649  1  0.93380000  0.00000000  0.37870000  1
  O  O650  1  0.56620000  0.50000000  0.37870000  1
  O  O651  1  0.56620000  0.00000000  0.87870000  1
  O  O652  1  0.06620000  0.50000000  0.87870000  1
  O  O653  1  0.06620000  0.00000000  0.37870000  1
  O  O654  1  0.43380000  0.50000000  0.62130000  1
  O  O655  1  0.43380000  0.00000000  0.12130000  1
  O  O656  1  0.93380000  0.50000000  0.12130000  1
  O  O657  1  0.93380000  0.00000000  0.62130000  1
  O  O658  1  0.56620000  0.62130000  0.50000000  1
  O  O659  1  0.56620000  0.12130000  0.00000000  1
  O  O660  1  0.06620000  0.62130000  0.00000000  1
  O  O661  1  0.06620000  0.12130000  0.50000000  1
  O  O662  1  0.43380000  0.37870000  0.50000000  1
  O  O663  1  0.43380000  0.87870000  0.00000000  1
  O  O664  1  0.93380000  0.37870000  0.00000000  1
  O  O665  1  0.93380000  0.87870000  0.50000000  1
  O  O666  1  0.56620000  0.37870000  0.50000000  1
  O  O667  1  0.56620000  0.87870000  0.00000000  1
  O  O668  1  0.06620000  0.37870000  0.00000000  1
  O  O669  1  0.06620000  0.87870000  0.50000000  1
  O  O670  1  0.43380000  0.62130000  0.50000000  1
  O  O671  1  0.43380000  0.12130000  0.00000000  1
  O  O672  1  0.93380000  0.62130000  0.00000000  1
  O  O673  1  0.93380000  0.12130000  0.50000000  1
  O  O674  1  0.62130000  0.50000000  0.43380000  1
  O  O675  1  0.62130000  0.00000000  0.93380000  1
  O  O676  1  0.12130000  0.50000000  0.93380000  1
  O  O677  1  0.12130000  0.00000000  0.43380000  1
  O  O678  1  0.37870000  0.50000000  0.56620000  1
  O  O679  1  0.37870000  0.00000000  0.06620000  1
  O  O680  1  0.87870000  0.50000000  0.06620000  1
  O  O681  1  0.87870000  0.00000000  0.56620000  1
  O  O682  1  0.37870000  0.50000000  0.43380000  1
  O  O683  1  0.37870000  0.00000000  0.93380000  1
  O  O684  1  0.87870000  0.50000000  0.93380000  1
  O  O685  1  0.87870000  0.00000000  0.43380000  1
  O  O686  1  0.62130000  0.50000000  0.56620000  1
  O  O687  1  0.62130000  0.00000000  0.06620000  1
  O  O688  1  0.12130000  0.50000000  0.06620000  1
  O  O689  1  0.12130000  0.00000000  0.56620000  1
  O  O690  1  0.50000000  0.56620000  0.37870000  1
  O  O691  1  0.50000000  0.06620000  0.87870000  1
  O  O692  1  0.00000000  0.56620000  0.87870000  1
  O  O693  1  0.00000000  0.06620000  0.37870000  1
  O  O694  1  0.50000000  0.43380000  0.62130000  1
  O  O695  1  0.50000000  0.93380000  0.12130000  1
  O  O696  1  0.00000000  0.43380000  0.12130000  1
  O  O697  1  0.00000000  0.93380000  0.62130000  1
  O  O698  1  0.50000000  0.56620000  0.62130000  1
  O  O699  1  0.50000000  0.06620000  0.12130000  1
  O  O700  1  0.00000000  0.56620000  0.12130000  1
  O  O701  1  0.00000000  0.06620000  0.62130000  1
  O  O702  1  0.50000000  0.43380000  0.37870000  1
  O  O703  1  0.50000000  0.93380000  0.87870000  1
  O  O704  1  0.00000000  0.43380000  0.87870000  1
  O  O705  1  0.00000000  0.93380000  0.37870000  1
