# generated using pymatgen
data_NaZrPH30C25O3
_symmetry_space_group_name_H-M   'P 1'
_cell_length_a   10.39250000
_cell_length_b   16.37200000
_cell_length_c   16.94800000
_cell_angle_alpha   93.42800000
_cell_angle_beta   100.44200000
_cell_angle_gamma   98.70300000
_symmetry_Int_Tables_number   1
_chemical_formula_structural   NaZrPH30C25O3
_chemical_formula_sum   'Na2 Zr2 P2 H60 C50 O6'
_cell_volume   2791.92065089
_cell_formula_units_Z   2
loop_
 _symmetry_equiv_pos_site_id
 _symmetry_equiv_pos_as_xyz
  1  'x, y, z'
loop_
 _atom_site_type_symbol
 _atom_site_label
 _atom_site_symmetry_multiplicity
 _atom_site_fract_x
 _atom_site_fract_y
 _atom_site_fract_z
 _atom_site_occupancy
  Na  Na0  1  0.49290000  0.89834000  0.46569000  1
  Na  Na1  1  0.50710000  0.10166000  0.53431000  1
  Zr  Zr2  1  0.04200000  0.05833000  0.38306000  1
  Zr  Zr3  1  0.95800000  0.94167000  0.61694000  1
  P  P4  1  0.87812000  0.00485000  0.47607000  1
  P  P5  1  0.12188000  0.99515000  0.52393000  1
  H  H6  1  0.12160000  0.20390000  0.28450000  1
  H  H7  1  0.86980000  0.11530000  0.21900000  1
  H  H8  1  0.03770000  0.20190000  0.51040000  1
  H  H9  1  0.86660000  0.93970000  0.24100000  1
  H  H10  1  0.68240000  0.79250000  0.29890000  1
  H  H11  1  0.71600000  0.88670000  0.33900000  1
  H  H12  1  0.31520000  0.16270000  0.37650000  1
  H  H13  1  0.95330000  0.23190000  0.36980000  1
  H  H14  1  0.21750000  0.92080000  0.38650000  1
  H  H15  1  0.26280000  0.02740000  0.29060000  1
  H  H16  1  0.51280000  0.07190000  0.35140000  1
  H  H17  1  0.18530000  0.71750000  0.46350000  1
  H  H18  1  0.21770000  0.80320000  0.52040000  1
  H  H19  1  0.96920000  0.86630000  0.35510000  1
  H  H20  1  0.61390000  0.84720000  0.18360000  1
  H  H21  1  0.60290000  0.93390000  0.23020000  1
  H  H22  1  0.26590000  0.16160000  0.51650000  1
  H  H23  1  0.48160000  0.11300000  0.22040000  1
  H  H24  1  0.04640000  0.04000000  0.20080000  1
  H  H25  1  0.20190000  0.65690000  0.57920000  1
  H  H26  1  0.28430000  0.74030000  0.63110000  1
  H  H27  1  0.34270000  0.79300000  0.31260000  1
  H  H28  1  0.42960000  0.73250000  0.27560000  1
  H  H29  1  0.53090000  0.70850000  0.49830000  1
  H  H30  1  0.39340000  0.65260000  0.45280000  1
  H  H31  1  0.65900000  0.13330000  0.15370000  1
  H  H32  1  0.38620000  0.89170000  0.22870000  1
  H  H33  1  0.39310000  0.81120000  0.17110000  1
  H  H34  1  0.47570000  0.69940000  0.62050000  1
  H  H35  1  0.39320000  0.61190000  0.57760000  1
  H  H36  1  0.78250000  0.07920000  0.61350000  1
  H  H37  1  0.31760000  0.20750000  0.70110000  1
  H  H38  1  0.81470000  0.28250000  0.53650000  1
  H  H39  1  0.73720000  0.97260000  0.70940000  1
  H  H40  1  0.78230000  0.19680000  0.47960000  1
  H  H41  1  0.03080000  0.13370000  0.64490000  1
  H  H42  1  0.48720000  0.92810000  0.64860000  1
  H  H43  1  0.38610000  0.15280000  0.81640000  1
  H  H44  1  0.39710000  0.06610000  0.76980000  1
  H  H45  1  0.13340000  0.06030000  0.75900000  1
  H  H46  1  0.13020000  0.88470000  0.78100000  1
  H  H47  1  0.28400000  0.11330000  0.66100000  1
  H  H48  1  0.96230000  0.79810000  0.48960000  1
  H  H49  1  0.04670000  0.76810000  0.63020000  1
  H  H50  1  0.68480000  0.83730000  0.62350000  1
  H  H51  1  0.87840000  0.79610000  0.71550000  1
  H  H52  1  0.34100000  0.86670000  0.84630000  1
  H  H53  1  0.71570000  0.25970000  0.36890000  1
  H  H54  1  0.60680000  0.38810000  0.42240000  1
  H  H55  1  0.79810000  0.34310000  0.42080000  1
  H  H56  1  0.73410000  0.83840000  0.48350000  1
  H  H57  1  0.95360000  0.96000000  0.79920000  1
  H  H58  1  0.57040000  0.26750000  0.72440000  1
  H  H59  1  0.65730000  0.20700000  0.68740000  1
  H  H60  1  0.60660000  0.34740000  0.54720000  1
  H  H61  1  0.61380000  0.10830000  0.77130000  1
  H  H62  1  0.51840000  0.88700000  0.77960000  1
  H  H63  1  0.60690000  0.18880000  0.82890000  1
  H  H64  1  0.52430000  0.30060000  0.37950000  1
  H  H65  1  0.46910000  0.29150000  0.50170000  1
  C  C66  1  0.82190000  0.07780000  0.32290000  1
  C  C67  1  0.72290000  0.03100000  0.44020000  1
  C  C68  1  0.71000000  0.06450000  0.36000000  1
  C  C69  1  0.12960000  0.19900000  0.34070000  1
  C  C70  1  0.79760000  0.10460000  0.24630000  1
  C  C71  1  0.08260000  0.19810000  0.46650000  1
  C  C72  1  0.95820000  0.94820000  0.26510000  1
  C  C73  1  0.64440000  0.84320000  0.30880000  1
  C  C74  1  0.23680000  0.17580000  0.39210000  1
  C  C75  1  0.03530000  0.21400000  0.38840000  1
  C  C76  1  0.15370000  0.93780000  0.34590000  1
  C  C77  1  0.17830000  0.99680000  0.29270000  1
  C  C78  1  0.58480000  0.07910000  0.32350000  1
  C  C79  1  0.25110000  0.75150000  0.50730000  1
  C  C80  1  0.01490000  0.90730000  0.32830000  1
  C  C81  1  0.58210000  0.87270000  0.22930000  1
  C  C82  1  0.20980000  0.17500000  0.47000000  1
  C  C83  1  0.56690000  0.10430000  0.24620000  1
  C  C84  1  0.05790000  0.00390000  0.24240000  1
  C  C85  1  0.27510000  0.70370000  0.58100000  1
  C  C86  1  0.42570000  0.79090000  0.29230000  1
  C  C87  1  0.43400000  0.69700000  0.49620000  1
  C  C88  1  0.67150000  0.11670000  0.20690000  1
  C  C89  1  0.43280000  0.84380000  0.22320000  1
  C  C90  1  0.40390000  0.67290000  0.57570000  1
  C  C91  1  0.27710000  0.96900000  0.55980000  1
  C  C92  1  0.82170000  0.00320000  0.70730000  1
  C  C93  1  0.94210000  0.99610000  0.75760000  1
  C  C94  1  0.76320000  0.82420000  0.60790000  1
  C  C95  1  0.84630000  0.06220000  0.65410000  1
  C  C96  1  0.17810000  0.92220000  0.67710000  1
  C  C97  1  0.79020000  0.82500000  0.53000000  1
  C  C98  1  0.87040000  0.80100000  0.65930000  1
  C  C99  1  0.35560000  0.15680000  0.69120000  1
  C  C100  1  0.57430000  0.20910000  0.70770000  1
  C  C101  1  0.96470000  0.78600000  0.61160000  1
  C  C102  1  0.74890000  0.24850000  0.49270000  1
  C  C103  1  0.56600000  0.30300000  0.50380000  1
  C  C104  1  0.04180000  0.05180000  0.73490000  1
  C  C105  1  0.29000000  0.93550000  0.64000000  1
  C  C106  1  0.20240000  0.89540000  0.75370000  1
  C  C107  1  0.98510000  0.09270000  0.67170000  1
  C  C108  1  0.91740000  0.80190000  0.53350000  1
  C  C109  1  0.41520000  0.92090000  0.67650000  1
  C  C110  1  0.43310000  0.89570000  0.75380000  1
  C  C111  1  0.32850000  0.88330000  0.79310000  1
  C  C112  1  0.72490000  0.29630000  0.41900000  1
  C  C113  1  0.41790000  0.12730000  0.77070000  1
  C  C114  1  0.59610000  0.32710000  0.42430000  1
  C  C115  1  0.56720000  0.15620000  0.77680000  1
  O  O116  1  0.62430000  0.02190000  0.47590000  1
  O  O117  1  0.54000000  0.82630000  0.35300000  1
  O  O118  1  0.37660000  0.77020000  0.48350000  1
  O  O119  1  0.37570000  0.97810000  0.52410000  1
  O  O120  1  0.46000000  0.17370000  0.64700000  1
  O  O121  1  0.62340000  0.22980000  0.51650000  1
