# generated using pymatgen
data_Zr3H30C80N4(ClO3)8
_symmetry_space_group_name_H-M   'P 1'
_cell_length_a   18.08500000
_cell_length_b   18.08500000
_cell_length_c   45.17575895
_cell_angle_alpha   101.54647100
_cell_angle_beta   101.54647100
_cell_angle_gamma   90.00000000
_symmetry_Int_Tables_number   1
_chemical_formula_structural   Zr3H30C80N4(ClO3)8
_chemical_formula_sum   'Zr12 H120 C320 N16 Cl32 O96'
_cell_volume   14171.16872480
_cell_formula_units_Z   4
loop_
 _symmetry_equiv_pos_site_id
 _symmetry_equiv_pos_as_xyz
  1  'x, y, z'
loop_
 _atom_site_type_symbol
 _atom_site_label
 _atom_site_symmetry_multiplicity
 _atom_site_fract_x
 _atom_site_fract_y
 _atom_site_fract_z
 _atom_site_occupancy
  C  C0  1  0.64122000  0.13882000  0.55204000  1
  C  C1  1  0.57587000  0.21367000  0.46734000  1
  C  C2  1  0.65882000  0.06132000  0.55084000  1
  C  C3  1  0.65075000  0.01165000  0.52190000  1
  C  C4  1  0.55990000  0.98640000  0.46980000  1
  C  C5  1  0.60271000  0.03531000  0.49542000  1
  C  C6  1  0.68340000  0.03790000  0.57880000  1
  C  C7  1  0.56618000  0.13808000  0.46836000  1
  C  C8  1  0.60179000  0.11249000  0.49578000  1
  C  C9  1  0.71170000  0.96420000  0.57740000  1
  C  C10  1  0.52545000  0.08615000  0.44290000  1
  C  C11  1  0.63027000  0.16587000  0.52254000  1
  C  C12  1  0.68821000  0.94361000  0.52202000  1
  C  C13  1  0.81264000  0.85114000  0.73828000  1
  C  C14  1  0.30552000  0.31312000  0.32244000  1
  C  C15  1  0.79021000  0.89561000  0.71342000  1
  C  C16  1  0.35752000  0.28062000  0.34704000  1
  C  C17  1  0.51872000  0.00932000  0.44444000  1
  C  C18  1  0.42595000  0.25665000  0.34310000  1
  C  C19  1  0.54063000  0.24113000  0.43906000  1
  C  C20  1  0.61922000  0.26292000  0.49204000  1
  C  C21  1  0.64683000  0.23983000  0.51966000  1
  C  C22  1  0.71681000  0.91961000  0.54922000  1
  C  C23  1  0.70066000  0.05806000  0.63632000  1
  C  C24  1  0.62841000  0.18151000  0.58042000  1
  C  C25  1  0.33200000  0.27540000  0.37320000  1
  C  C26  1  0.67768000  0.08348000  0.60656000  1
  C  C27  1  0.48416000  0.11326000  0.41552000  1
  C  C28  1  0.64847000  0.15237000  0.60754000  1
  C  C29  1  0.37572000  0.24402000  0.39544000  1
  C  C30  1  0.84410000  0.93470000  0.70460000  1
  C  C31  1  0.47124000  0.22464000  0.36648000  1
  C  C32  1  0.44580000  0.22120000  0.39140000  1
  C  C33  1  0.69567000  0.92397000  0.67154000  1
  C  C34  1  0.75242000  0.95852000  0.66224000  1
  C  C35  1  0.71572000  0.88892000  0.69724000  1
  C  C36  1  0.82376000  0.96756000  0.67932000  1
  C  C37  1  0.73885000  0.93735000  0.60650000  1
  C  C38  1  0.76089000  0.74519000  0.82338000  1
  C  C39  1  0.71909000  0.77829000  0.84898000  1
  C  C40  1  0.41322000  0.14122000  0.05204000  1
  C  C41  1  0.25367000  0.07587000  0.96734000  1
  C  C42  1  0.48952000  0.15882000  0.05084000  1
  C  C43  1  0.51025000  0.15075000  0.02190000  1
  C  C44  1  0.48340000  0.05990000  0.96980000  1
  C  C45  1  0.46011000  0.10271000  0.99542000  1
  C  C46  1  0.54090000  0.18340000  0.07880000  1
  C  C47  1  0.33028000  0.06618000  0.96836000  1
  C  C48  1  0.38329000  0.10179000  0.99578000  1
  C  C49  1  0.61320000  0.21170000  0.07740000  1
  C  C50  1  0.35675000  0.02545000  0.94290000  1
  C  C51  1  0.35667000  0.13027000  0.02254000  1
  C  C52  1  0.57841000  0.18821000  0.02202000  1
  C  C53  1  0.88714000  0.31264000  0.23828000  1
  C  C54  1  0.00932000  0.80552000  0.82244000  1
  C  C55  1  0.81781000  0.29021000  0.21342000  1
  C  C56  1  0.06642000  0.85752000  0.84704000  1
  C  C57  1  0.43512000  0.01872000  0.94444000  1
  C  C58  1  0.08645000  0.92595000  0.84310000  1
  C  C59  1  0.19793000  0.04063000  0.93906000  1
  C  C60  1  0.22912000  0.11922000  0.99204000  1
  C  C61  1  0.27983000  0.14683000  0.01966000  1
  C  C62  1  0.62961000  0.21681000  0.04922000  1
  C  C63  1  0.57826000  0.20066000  0.13632000  1
  C  C64  1  0.39891000  0.12841000  0.08042000  1
  C  C65  1  0.09780000  0.83200000  0.87320000  1
  C  C66  1  0.52308000  0.17768000  0.10656000  1
  C  C67  1  0.30226000  0.98416000  0.91552000  1
  C  C68  1  0.45517000  0.14847000  0.10754000  1
  C  C69  1  0.15142000  0.87572000  0.89544000  1
  C  C70  1  0.76990000  0.34410000  0.20460000  1
  C  C71  1  0.14184000  0.97124000  0.86648000  1
  C  C72  1  0.17020000  0.94580000  0.89140000  1
  C  C73  1  0.74757000  0.19567000  0.17154000  1
  C  C74  1  0.70372000  0.25242000  0.16224000  1
  C  C75  1  0.80832000  0.21572000  0.19724000  1
  C  C76  1  0.71176000  0.32376000  0.17932000  1
  C  C77  1  0.66915000  0.23885000  0.10650000  1
  C  C78  1  0.07819000  0.26089000  0.32338000  1
  C  C79  1  0.07069000  0.21909000  0.34898000  1
  C  C80  1  0.91082000  0.91322000  0.55204000  1
  C  C81  1  0.89147000  0.75367000  0.46734000  1
  C  C82  1  0.89202000  0.98952000  0.55084000  1
  C  C83  1  0.87115000  0.01025000  0.52190000  1
  C  C84  1  0.90990000  0.98340000  0.46980000  1
  C  C85  1  0.89271000  0.96011000  0.49542000  1
  C  C86  1  0.89540000  0.04090000  0.57880000  1
  C  C87  1  0.90218000  0.83028000  0.46836000  1
  C  C88  1  0.89399000  0.88329000  0.49578000  1
  C  C89  1  0.86570000  0.11320000  0.57740000  1
  C  C90  1  0.91745000  0.85675000  0.44290000  1
  C  C91  1  0.89227000  0.85667000  0.52254000  1
  C  C92  1  0.83381000  0.07841000  0.52202000  1
  C  C93  1  0.92564000  0.38714000  0.73828000  1
  C  C94  1  0.01692000  0.50932000  0.32244000  1
  C  C95  1  0.92321000  0.31781000  0.71342000  1
  C  C96  1  0.98952000  0.56642000  0.34704000  1
  C  C97  1  0.92572000  0.93512000  0.44444000  1
  C  C98  1  0.91715000  0.58645000  0.34310000  1
  C  C99  1  0.89843000  0.69793000  0.43906000  1
  C  C100  1  0.87282000  0.72912000  0.49204000  1
  C  C101  1  0.87283000  0.77983000  0.51966000  1
  C  C102  1  0.83241000  0.12961000  0.54922000  1
  C  C103  1  0.93566000  0.07826000  0.63632000  1
  C  C104  1  0.95201000  0.89891000  0.58042000  1
  C  C105  1  0.04120000  0.59780000  0.37320000  1
  C  C106  1  0.92888000  0.02308000  0.60656000  1
  C  C107  1  0.93136000  0.80226000  0.41552000  1
  C  C108  1  0.95907000  0.95517000  0.60754000  1
  C  C109  1  0.01972000  0.65142000  0.39544000  1
  C  C110  1  0.86050000  0.26990000  0.70460000  1
  C  C111  1  0.89524000  0.64184000  0.36648000  1
  C  C112  1  0.94560000  0.67020000  0.39140000  1
  C  C113  1  0.97587000  0.24757000  0.67154000  1
  C  C114  1  0.90982000  0.20372000  0.66224000  1
  C  C115  1  0.98152000  0.30832000  0.69724000  1
  C  C116  1  0.85556000  0.21176000  0.67932000  1
  C  C117  1  0.86765000  0.16915000  0.60650000  1
  C  C118  1  0.06249000  0.57819000  0.82338000  1
  C  C119  1  0.12989000  0.57069000  0.84898000  1
  C  C120  1  0.63882000  0.41082000  0.05204000  1
  C  C121  1  0.71367000  0.39147000  0.96734000  1
  C  C122  1  0.56132000  0.39202000  0.05084000  1
  C  C123  1  0.51165000  0.37115000  0.02190000  1
  C  C124  1  0.48640000  0.40990000  0.96980000  1
  C  C125  1  0.53531000  0.39271000  0.99542000  1
  C  C126  1  0.53790000  0.39540000  0.07880000  1
  C  C127  1  0.63808000  0.40218000  0.96836000  1
  C  C128  1  0.61249000  0.39399000  0.99578000  1
  C  C129  1  0.46420000  0.36570000  0.07740000  1
  C  C130  1  0.58615000  0.41745000  0.94290000  1
  C  C131  1  0.66587000  0.39227000  0.02254000  1
  C  C132  1  0.44361000  0.33381000  0.02202000  1
  C  C133  1  0.35114000  0.42564000  0.23828000  1
  C  C134  1  0.81312000  0.51692000  0.82244000  1
  C  C135  1  0.39561000  0.42321000  0.21342000  1
  C  C136  1  0.78062000  0.48952000  0.84704000  1
  C  C137  1  0.50932000  0.42572000  0.94444000  1
  C  C138  1  0.75665000  0.41715000  0.84310000  1
  C  C139  1  0.74113000  0.39843000  0.93906000  1
  C  C140  1  0.76292000  0.37282000  0.99204000  1
  C  C141  1  0.73983000  0.37283000  0.01966000  1
  C  C142  1  0.41961000  0.33241000  0.04922000  1
  C  C143  1  0.55806000  0.43566000  0.13632000  1
  C  C144  1  0.68151000  0.45201000  0.08042000  1
  C  C145  1  0.77540000  0.54120000  0.87320000  1
  C  C146  1  0.58348000  0.42888000  0.10656000  1
  C  C147  1  0.61326000  0.43136000  0.91552000  1
  C  C148  1  0.65237000  0.45907000  0.10754000  1
  C  C149  1  0.74402000  0.51972000  0.89544000  1
  C  C150  1  0.43470000  0.36050000  0.20460000  1
  C  C151  1  0.72464000  0.39524000  0.86648000  1
  C  C152  1  0.72120000  0.44560000  0.89140000  1
  C  C153  1  0.42397000  0.47587000  0.17154000  1
  C  C154  1  0.45852000  0.40982000  0.16224000  1
  C  C155  1  0.38892000  0.48152000  0.19724000  1
  C  C156  1  0.46756000  0.35556000  0.17932000  1
  C  C157  1  0.43735000  0.36765000  0.10650000  1
  C  C158  1  0.24519000  0.56249000  0.32338000  1
  C  C159  1  0.27829000  0.62989000  0.34898000  1
  C  C160  1  0.35878000  0.86118000  0.44796000  1
  C  C161  1  0.42413000  0.78633000  0.53266000  1
  C  C162  1  0.34118000  0.93868000  0.44916000  1
  C  C163  1  0.34925000  0.98835000  0.47810000  1
  C  C164  1  0.44010000  0.01360000  0.53020000  1
  C  C165  1  0.39729000  0.96469000  0.50458000  1
  C  C166  1  0.31660000  0.96210000  0.42120000  1
  C  C167  1  0.43382000  0.86192000  0.53164000  1
  C  C168  1  0.39821000  0.88751000  0.50422000  1
  C  C169  1  0.28830000  0.03580000  0.42260000  1
  C  C170  1  0.47455000  0.91385000  0.55710000  1
  C  C171  1  0.36973000  0.83413000  0.47746000  1
  C  C172  1  0.31179000  0.05639000  0.47798000  1
  C  C173  1  0.18736000  0.14886000  0.26172000  1
  C  C174  1  0.69448000  0.68688000  0.67756000  1
  C  C175  1  0.20979000  0.10439000  0.28658000  1
  C  C176  1  0.64248000  0.71938000  0.65296000  1
  C  C177  1  0.48128000  0.99068000  0.55556000  1
  C  C178  1  0.57405000  0.74335000  0.65690000  1
  C  C179  1  0.45937000  0.75887000  0.56094000  1
  C  C180  1  0.38078000  0.73708000  0.50796000  1
  C  C181  1  0.35317000  0.76017000  0.48034000  1
  C  C182  1  0.28319000  0.08039000  0.45078000  1
  C  C183  1  0.29934000  0.94194000  0.36368000  1
  C  C184  1  0.37159000  0.81849000  0.41958000  1
  C  C185  1  0.66800000  0.72460000  0.62680000  1
  C  C186  1  0.32232000  0.91652000  0.39344000  1
  C  C187  1  0.51584000  0.88674000  0.58448000  1
  C  C188  1  0.35153000  0.84763000  0.39246000  1
  C  C189  1  0.62428000  0.75598000  0.60456000  1
  C  C190  1  0.15590000  0.06530000  0.29540000  1
  C  C191  1  0.52876000  0.77536000  0.63352000  1
  C  C192  1  0.55420000  0.77880000  0.60860000  1
  C  C193  1  0.30433000  0.07603000  0.32846000  1
  C  C194  1  0.24758000  0.04148000  0.33776000  1
  C  C195  1  0.28428000  0.11108000  0.30276000  1
  C  C196  1  0.17624000  0.03244000  0.32068000  1
  C  C197  1  0.26115000  0.06265000  0.39350000  1
  C  C198  1  0.23911000  0.25481000  0.17662000  1
  C  C199  1  0.28091000  0.22171000  0.15102000  1
  C  C200  1  0.58678000  0.85878000  0.94796000  1
  C  C201  1  0.74633000  0.92413000  0.03266000  1
  C  C202  1  0.51048000  0.84118000  0.94916000  1
  C  C203  1  0.48975000  0.84925000  0.97810000  1
  C  C204  1  0.51660000  0.94010000  0.03020000  1
  C  C205  1  0.53989000  0.89729000  0.00458000  1
  C  C206  1  0.45910000  0.81660000  0.92120000  1
  C  C207  1  0.66972000  0.93382000  0.03164000  1
  C  C208  1  0.61671000  0.89821000  0.00422000  1
  C  C209  1  0.38680000  0.78830000  0.92260000  1
  C  C210  1  0.64325000  0.97455000  0.05710000  1
  C  C211  1  0.64333000  0.86973000  0.97746000  1
  C  C212  1  0.42159000  0.81179000  0.97798000  1
  C  C213  1  0.11286000  0.68736000  0.76172000  1
  C  C214  1  0.99068000  0.19448000  0.17756000  1
  C  C215  1  0.18219000  0.70979000  0.78658000  1
  C  C216  1  0.93358000  0.14248000  0.15296000  1
  C  C217  1  0.56488000  0.98128000  0.05556000  1
  C  C218  1  0.91355000  0.07405000  0.15690000  1
  C  C219  1  0.80207000  0.95937000  0.06094000  1
  C  C220  1  0.77088000  0.88078000  0.00796000  1
  C  C221  1  0.72017000  0.85317000  0.98034000  1
  C  C222  1  0.37039000  0.78319000  0.95078000  1
  C  C223  1  0.42174000  0.79934000  0.86368000  1
  C  C224  1  0.60109000  0.87159000  0.91958000  1
  C  C225  1  0.90220000  0.16800000  0.12680000  1
  C  C226  1  0.47692000  0.82232000  0.89344000  1
  C  C227  1  0.69774000  0.01584000  0.08448000  1
  C  C228  1  0.54483000  0.85153000  0.89246000  1
  C  C229  1  0.84858000  0.12428000  0.10456000  1
  C  C230  1  0.23010000  0.65590000  0.79540000  1
  C  C231  1  0.85816000  0.02876000  0.13352000  1
  C  C232  1  0.82980000  0.05420000  0.10860000  1
  C  C233  1  0.25243000  0.80433000  0.82846000  1
  C  C234  1  0.29628000  0.74758000  0.83776000  1
  C  C235  1  0.19168000  0.78428000  0.80276000  1
  C  C236  1  0.28824000  0.67624000  0.82068000  1
  C  C237  1  0.33085000  0.76115000  0.89350000  1
  C  C238  1  0.92181000  0.73911000  0.67662000  1
  C  C239  1  0.92931000  0.78091000  0.65102000  1
  C  C240  1  0.08918000  0.08678000  0.44796000  1
  C  C241  1  0.10853000  0.24633000  0.53266000  1
  C  C242  1  0.10798000  0.01048000  0.44916000  1
  C  C243  1  0.12885000  0.98975000  0.47810000  1
  C  C244  1  0.09010000  0.01660000  0.53020000  1
  C  C245  1  0.10729000  0.03989000  0.50458000  1
  C  C246  1  0.10460000  0.95910000  0.42120000  1
  C  C247  1  0.09782000  0.16972000  0.53164000  1
  C  C248  1  0.10601000  0.11671000  0.50422000  1
  C  C249  1  0.13430000  0.88680000  0.42260000  1
  C  C250  1  0.08255000  0.14325000  0.55710000  1
  C  C251  1  0.10773000  0.14333000  0.47746000  1
  C  C252  1  0.16619000  0.92159000  0.47798000  1
  C  C253  1  0.07436000  0.61286000  0.26172000  1
  C  C254  1  0.98308000  0.49068000  0.67756000  1
  C  C255  1  0.07679000  0.68219000  0.28658000  1
  C  C256  1  0.01048000  0.43358000  0.65296000  1
  C  C257  1  0.07428000  0.06488000  0.55556000  1
  C  C258  1  0.08285000  0.41355000  0.65690000  1
  C  C259  1  0.10157000  0.30207000  0.56094000  1
  C  C260  1  0.12718000  0.27088000  0.50796000  1
  C  C261  1  0.12717000  0.22017000  0.48034000  1
  C  C262  1  0.16759000  0.87039000  0.45078000  1
  C  C263  1  0.06434000  0.92174000  0.36368000  1
  C  C264  1  0.04799000  0.10109000  0.41958000  1
  C  C265  1  0.95880000  0.40220000  0.62680000  1
  C  C266  1  0.07112000  0.97692000  0.39344000  1
  C  C267  1  0.06864000  0.19774000  0.58448000  1
  C  C268  1  0.04093000  0.04483000  0.39246000  1
  C  C269  1  0.98028000  0.34858000  0.60456000  1
  C  C270  1  0.13950000  0.73010000  0.29540000  1
  C  C271  1  0.10476000  0.35816000  0.63352000  1
  C  C272  1  0.05440000  0.32980000  0.60860000  1
  C  C273  1  0.02413000  0.75243000  0.32846000  1
  C  C274  1  0.09018000  0.79628000  0.33776000  1
  C  C275  1  0.01848000  0.69168000  0.30276000  1
  C  C276  1  0.14444000  0.78824000  0.32068000  1
  C  C277  1  0.13235000  0.83085000  0.39350000  1
  C  C278  1  0.93751000  0.42181000  0.17662000  1
  C  C279  1  0.87011000  0.42931000  0.15102000  1
  C  C280  1  0.36118000  0.58918000  0.94796000  1
  C  C281  1  0.28633000  0.60853000  0.03266000  1
  C  C282  1  0.43868000  0.60798000  0.94916000  1
  C  C283  1  0.48835000  0.62885000  0.97810000  1
  C  C284  1  0.51360000  0.59010000  0.03020000  1
  C  C285  1  0.46469000  0.60729000  0.00458000  1
  C  C286  1  0.46210000  0.60460000  0.92120000  1
  C  C287  1  0.36192000  0.59782000  0.03164000  1
  C  C288  1  0.38751000  0.60601000  0.00422000  1
  C  C289  1  0.53580000  0.63430000  0.92260000  1
  C  C290  1  0.41385000  0.58255000  0.05710000  1
  C  C291  1  0.33413000  0.60773000  0.97746000  1
  C  C292  1  0.55639000  0.66619000  0.97798000  1
  C  C293  1  0.64886000  0.57436000  0.76172000  1
  C  C294  1  0.18688000  0.48308000  0.17756000  1
  C  C295  1  0.60439000  0.57679000  0.78658000  1
  C  C296  1  0.21938000  0.51048000  0.15296000  1
  C  C297  1  0.49068000  0.57428000  0.05556000  1
  C  C298  1  0.24335000  0.58285000  0.15690000  1
  C  C299  1  0.25887000  0.60157000  0.06094000  1
  C  C300  1  0.23708000  0.62718000  0.00796000  1
  C  C301  1  0.26017000  0.62717000  0.98034000  1
  C  C302  1  0.58039000  0.66759000  0.95078000  1
  C  C303  1  0.44194000  0.56434000  0.86368000  1
  C  C304  1  0.31849000  0.54799000  0.91958000  1
  C  C305  1  0.22460000  0.45880000  0.12680000  1
  C  C306  1  0.41652000  0.57112000  0.89344000  1
  C  C307  1  0.38674000  0.56864000  0.08448000  1
  C  C308  1  0.34763000  0.54093000  0.89246000  1
  C  C309  1  0.25598000  0.48028000  0.10456000  1
  C  C310  1  0.56530000  0.63950000  0.79540000  1
  C  C311  1  0.27536000  0.60476000  0.13352000  1
  C  C312  1  0.27880000  0.55440000  0.10860000  1
  C  C313  1  0.57603000  0.52413000  0.82846000  1
  C  C314  1  0.54148000  0.59018000  0.83776000  1
  C  C315  1  0.61108000  0.51848000  0.80276000  1
  C  C316  1  0.53244000  0.64444000  0.82068000  1
  C  C317  1  0.56265000  0.63235000  0.89350000  1
  C  C318  1  0.75481000  0.43751000  0.67662000  1
  C  C319  1  0.72171000  0.37011000  0.65102000  1
  Cl  Cl320  1  0.71019000  0.88955000  0.48914000  1
  Cl  Cl321  1  0.58241000  0.26548000  0.58284000  1
  Cl  Cl322  1  0.70517000  0.30274000  0.54884000  1
  Cl  Cl323  1  0.54128000  0.89151000  0.46954000  1
  Cl  Cl324  1  0.59959000  0.21019000  0.98914000  1
  Cl  Cl325  1  0.31736000  0.08241000  0.08284000  1
  Cl  Cl326  1  0.24610000  0.20517000  0.04884000  1
  Cl  Cl327  1  0.57803000  0.04128000  0.96954000  1
  Cl  Cl328  1  0.77895000  0.09959000  0.48914000  1
  Cl  Cl329  1  0.00043000  0.81736000  0.58284000  1
  Cl  Cl330  1  0.84367000  0.74610000  0.54884000  1
  Cl  Cl331  1  0.92826000  0.07803000  0.46954000  1
  Cl  Cl332  1  0.38955000  0.27895000  0.98914000  1
  Cl  Cl333  1  0.76548000  0.50043000  0.08284000  1
  Cl  Cl334  1  0.80274000  0.34367000  0.04884000  1
  Cl  Cl335  1  0.39151000  0.42826000  0.96954000  1
  Cl  Cl336  1  0.28981000  0.11045000  0.51086000  1
  Cl  Cl337  1  0.41759000  0.73452000  0.41716000  1
  Cl  Cl338  1  0.29483000  0.69726000  0.45116000  1
  Cl  Cl339  1  0.45872000  0.10849000  0.53046000  1
  Cl  Cl340  1  0.40041000  0.78981000  0.01086000  1
  Cl  Cl341  1  0.68264000  0.91759000  0.91716000  1
  Cl  Cl342  1  0.75390000  0.79483000  0.95116000  1
  Cl  Cl343  1  0.42197000  0.95872000  0.03046000  1
  Cl  Cl344  1  0.22105000  0.90041000  0.51086000  1
  Cl  Cl345  1  0.99957000  0.18264000  0.41716000  1
  Cl  Cl346  1  0.15633000  0.25390000  0.45116000  1
  Cl  Cl347  1  0.07174000  0.92197000  0.53046000  1
  Cl  Cl348  1  0.61045000  0.72105000  0.01086000  1
  Cl  Cl349  1  0.23452000  0.49957000  0.91716000  1
  Cl  Cl350  1  0.19726000  0.65633000  0.95116000  1
  Cl  Cl351  1  0.60849000  0.57174000  0.03046000  1
  H  H352  1  0.48740000  0.97540000  0.42880000  1
  H  H353  1  0.44320000  0.26100000  0.32540000  1
  H  H354  1  0.63000000  0.31180000  0.49020000  1
  H  H355  1  0.73960000  0.87340000  0.54860000  1
  H  H356  1  0.28490000  0.29320000  0.37580000  1
  H  H357  1  0.64140000  0.18080000  0.62620000  1
  H  H358  1  0.35820000  0.23830000  0.41280000  1
  H  H359  1  0.89380000  0.93890000  0.71560000  1
  H  H360  1  0.51830000  0.20640000  0.36420000  1
  H  H361  1  0.64560000  0.92370000  0.66120000  1
  H  H362  1  0.67950000  0.86170000  0.70320000  1
  H  H363  1  0.85950000  0.99640000  0.67380000  1
  H  H364  1  0.70380000  0.73840000  0.85800000  1
  H  H365  1  0.67520000  0.80290000  0.84040000  1
  H  H366  1  0.75190000  0.81410000  0.86460000  1
  H  H367  1  0.45340000  0.98740000  0.92880000  1
  H  H368  1  0.06440000  0.94320000  0.82540000  1
  H  H369  1  0.17840000  0.13000000  0.99020000  1
  H  H370  1  0.67520000  0.23960000  0.04860000  1
  H  H371  1  0.08260000  0.78490000  0.87580000  1
  H  H372  1  0.44540000  0.14140000  0.12620000  1
  H  H373  1  0.17450000  0.85820000  0.91280000  1
  H  H374  1  0.77670000  0.39380000  0.21560000  1
  H  H375  1  0.15780000  0.01830000  0.86420000  1
  H  H376  1  0.73750000  0.14560000  0.16120000  1
  H  H377  1  0.84150000  0.17950000  0.20320000  1
  H  H378  1  0.67740000  0.35950000  0.17380000  1
  H  H379  1  0.11960000  0.20380000  0.35800000  1
  H  H380  1  0.03750000  0.17520000  0.34040000  1
  H  H381  1  0.05050000  0.25190000  0.36460000  1
  H  H382  1  0.94140000  0.95340000  0.42880000  1
  H  H383  1  0.88220000  0.56440000  0.32540000  1
  H  H384  1  0.86020000  0.67840000  0.49020000  1
  H  H385  1  0.80900000  0.17520000  0.54860000  1
  H  H386  1  0.09090000  0.58260000  0.37580000  1
  H  H387  1  0.98480000  0.94540000  0.62620000  1
  H  H388  1  0.05460000  0.67450000  0.41280000  1
  H  H389  1  0.82180000  0.27670000  0.71560000  1
  H  H390  1  0.84590000  0.65780000  0.36420000  1
  H  H391  1  0.01560000  0.23750000  0.66120000  1
  H  H392  1  0.02370000  0.34150000  0.70320000  1
  H  H393  1  0.81430000  0.17740000  0.67380000  1
  H  H394  1  0.15420000  0.61960000  0.85800000  1
  H  H395  1  0.16520000  0.53750000  0.84040000  1
  H  H396  1  0.11270000  0.55050000  0.86460000  1
  H  H397  1  0.47540000  0.44140000  0.92880000  1
  H  H398  1  0.76100000  0.38220000  0.82540000  1
  H  H399  1  0.81180000  0.36020000  0.99020000  1
  H  H400  1  0.37340000  0.30900000  0.04860000  1
  H  H401  1  0.79320000  0.59090000  0.87580000  1
  H  H402  1  0.68080000  0.48480000  0.12620000  1
  H  H403  1  0.73830000  0.55460000  0.91280000  1
  H  H404  1  0.43890000  0.32180000  0.21560000  1
  H  H405  1  0.70640000  0.34590000  0.86420000  1
  H  H406  1  0.42370000  0.51560000  0.16120000  1
  H  H407  1  0.36170000  0.52370000  0.20320000  1
  H  H408  1  0.49640000  0.31430000  0.17380000  1
  H  H409  1  0.23840000  0.65420000  0.35800000  1
  H  H410  1  0.30290000  0.66520000  0.34040000  1
  H  H411  1  0.31410000  0.61270000  0.36460000  1
  H  H412  1  0.51260000  0.02460000  0.57120000  1
  H  H413  1  0.55680000  0.73900000  0.67460000  1
  H  H414  1  0.37000000  0.68820000  0.50980000  1
  H  H415  1  0.26040000  0.12660000  0.45140000  1
  H  H416  1  0.71510000  0.70680000  0.62420000  1
  H  H417  1  0.35860000  0.81920000  0.37380000  1
  H  H418  1  0.64180000  0.76170000  0.58720000  1
  H  H419  1  0.10620000  0.06110000  0.28440000  1
  H  H420  1  0.48170000  0.79360000  0.63580000  1
  H  H421  1  0.35440000  0.07630000  0.33880000  1
  H  H422  1  0.32050000  0.13830000  0.29680000  1
  H  H423  1  0.14050000  0.00360000  0.32620000  1
  H  H424  1  0.29620000  0.26160000  0.14200000  1
  H  H425  1  0.32480000  0.19710000  0.15960000  1
  H  H426  1  0.24810000  0.18590000  0.13540000  1
  H  H427  1  0.54660000  0.01260000  0.07120000  1
  H  H428  1  0.93560000  0.05680000  0.17460000  1
  H  H429  1  0.82160000  0.87000000  0.00980000  1
  H  H430  1  0.32480000  0.76040000  0.95140000  1
  H  H431  1  0.91740000  0.21510000  0.12420000  1
  H  H432  1  0.55460000  0.85860000  0.87380000  1
  H  H433  1  0.82550000  0.14180000  0.08720000  1
  H  H434  1  0.22330000  0.60620000  0.78440000  1
  H  H435  1  0.84220000  0.98170000  0.13580000  1
  H  H436  1  0.26250000  0.85440000  0.83880000  1
  H  H437  1  0.15850000  0.82050000  0.79680000  1
  H  H438  1  0.32260000  0.64050000  0.82620000  1
  H  H439  1  0.88040000  0.79620000  0.64200000  1
  H  H440  1  0.96250000  0.82480000  0.65960000  1
  H  H441  1  0.94950000  0.74810000  0.63540000  1
  H  H442  1  0.05860000  0.04660000  0.57120000  1
  H  H443  1  0.11780000  0.43560000  0.67460000  1
  H  H444  1  0.13980000  0.32160000  0.50980000  1
  H  H445  1  0.19100000  0.82480000  0.45140000  1
  H  H446  1  0.90910000  0.41740000  0.62420000  1
  H  H447  1  0.01520000  0.05460000  0.37380000  1
  H  H448  1  0.94540000  0.32550000  0.58720000  1
  H  H449  1  0.17820000  0.72330000  0.28440000  1
  H  H450  1  0.15410000  0.34220000  0.63580000  1
  H  H451  1  0.98440000  0.76250000  0.33880000  1
  H  H452  1  0.97630000  0.65850000  0.29680000  1
  H  H453  1  0.18570000  0.82260000  0.32620000  1
  H  H454  1  0.84580000  0.38040000  0.14200000  1
  H  H455  1  0.83480000  0.46250000  0.15960000  1
  H  H456  1  0.88730000  0.44950000  0.13540000  1
  H  H457  1  0.52460000  0.55860000  0.07120000  1
  H  H458  1  0.23900000  0.61780000  0.17460000  1
  H  H459  1  0.18820000  0.63980000  0.00980000  1
  H  H460  1  0.62660000  0.69100000  0.95140000  1
  H  H461  1  0.20680000  0.40910000  0.12420000  1
  H  H462  1  0.31920000  0.51520000  0.87380000  1
  H  H463  1  0.26170000  0.44540000  0.08720000  1
  H  H464  1  0.56110000  0.67820000  0.78440000  1
  H  H465  1  0.29360000  0.65410000  0.13580000  1
  H  H466  1  0.57630000  0.48440000  0.83880000  1
  H  H467  1  0.63830000  0.47630000  0.79680000  1
  H  H468  1  0.50360000  0.68570000  0.82620000  1
  H  H469  1  0.76160000  0.34580000  0.64200000  1
  H  H470  1  0.69710000  0.33480000  0.65960000  1
  H  H471  1  0.68590000  0.38730000  0.63540000  1
  N  N472  1  0.73060000  0.98780000  0.63420000  1
  N  N473  1  0.49236000  0.18966000  0.41632000  1
  N  N474  1  0.64640000  0.23060000  0.13420000  1
  N  N475  1  0.22666000  0.99236000  0.91632000  1
  N  N476  1  0.90360000  0.14640000  0.63420000  1
  N  N477  1  0.92396000  0.72666000  0.41632000  1
  N  N478  1  0.48780000  0.40360000  0.13420000  1
  N  N479  1  0.68966000  0.42396000  0.91632000  1
  N  N480  1  0.26940000  0.01220000  0.36580000  1
  N  N481  1  0.50764000  0.81034000  0.58368000  1
  N  N482  1  0.35360000  0.76940000  0.86580000  1
  N  N483  1  0.77334000  0.00764000  0.08368000  1
  N  N484  1  0.09640000  0.85360000  0.36580000  1
  N  N485  1  0.07604000  0.27334000  0.58368000  1
  N  N486  1  0.51220000  0.59640000  0.86580000  1
  N  N487  1  0.31034000  0.57604000  0.08368000  1
  O  O488  1  0.80575000  0.61713000  0.77432000  1
  O  O489  1  0.31613000  0.29528000  0.29510000  1
  O  O490  1  0.91984000  0.53616000  0.78242000  1
  O  O491  1  0.88451000  0.84826000  0.74848000  1
  O  O492  1  0.25523000  0.35452000  0.33124000  1
  O  O493  1  0.76183000  0.81743000  0.74646000  1
  O  O494  1  0.44021000  0.07261000  0.39442000  1
  O  O495  1  0.76711000  0.87651000  0.60702000  1
  O  O496  1  0.82899000  0.71809000  0.83438000  1
  O  O497  1  0.54765000  0.30635000  0.43730000  1
  O  O498  1  0.72398000  0.74808000  0.79376000  1
  O  O499  1  0.69426000  0.09436000  0.66152000  1
  O  O500  1  0.15719000  0.30575000  0.27432000  1
  O  O501  1  0.99982000  0.81613000  0.79510000  1
  O  O502  1  0.24626000  0.41984000  0.28242000  1
  O  O503  1  0.90022000  0.38451000  0.24848000  1
  O  O504  1  0.97672000  0.75523000  0.83124000  1
  O  O505  1  0.92903000  0.26183000  0.24646000  1
  O  O506  1  0.32181000  0.94021000  0.89442000  1
  O  O507  1  0.73051000  0.26711000  0.10702000  1
  O  O508  1  0.11629000  0.32899000  0.33438000  1
  O  O509  1  0.13095000  0.04765000  0.93730000  1
  O  O510  1  0.04568000  0.22398000  0.29376000  1
  O  O511  1  0.56716000  0.19426000  0.16152000  1
  O  O512  1  0.96857000  0.65719000  0.77432000  1
  O  O513  1  0.97897000  0.49982000  0.29510000  1
  O  O514  1  0.86258000  0.74626000  0.78242000  1
  O  O515  1  0.86397000  0.40022000  0.74848000  1
  O  O516  1  0.07601000  0.47672000  0.33124000  1
  O  O517  1  0.98463000  0.42903000  0.74646000  1
  O  O518  1  0.95421000  0.82181000  0.39442000  1
  O  O519  1  0.83991000  0.23051000  0.60702000  1
  O  O520  1  0.00539000  0.61629000  0.83438000  1
  O  O521  1  0.88965000  0.63095000  0.43730000  1
  O  O522  1  0.06978000  0.54568000  0.79376000  1
  O  O523  1  0.96726000  0.06716000  0.66152000  1
  O  O524  1  0.11713000  0.46857000  0.27432000  1
  O  O525  1  0.79528000  0.47897000  0.79510000  1
  O  O526  1  0.03616000  0.36258000  0.28242000  1
  O  O527  1  0.34826000  0.36397000  0.24848000  1
  O  O528  1  0.85452000  0.57601000  0.83124000  1
  O  O529  1  0.31743000  0.48463000  0.24646000  1
  O  O530  1  0.57261000  0.45421000  0.89442000  1
  O  O531  1  0.37651000  0.33991000  0.10702000  1
  O  O532  1  0.21809000  0.50539000  0.33438000  1
  O  O533  1  0.80635000  0.38965000  0.93730000  1
  O  O534  1  0.24808000  0.56978000  0.29376000  1
  O  O535  1  0.59436000  0.46726000  0.16152000  1
  O  O536  1  0.19425000  0.38287000  0.22568000  1
  O  O537  1  0.68387000  0.70472000  0.70490000  1
  O  O538  1  0.08016000  0.46384000  0.21758000  1
  O  O539  1  0.11549000  0.15174000  0.25152000  1
  O  O540  1  0.74477000  0.64548000  0.66876000  1
  O  O541  1  0.23817000  0.18257000  0.25354000  1
  O  O542  1  0.55979000  0.92739000  0.60558000  1
  O  O543  1  0.23289000  0.12349000  0.39298000  1
  O  O544  1  0.17101000  0.28191000  0.16562000  1
  O  O545  1  0.45235000  0.69365000  0.56270000  1
  O  O546  1  0.27602000  0.25192000  0.20624000  1
  O  O547  1  0.30574000  0.90564000  0.33848000  1
  O  O548  1  0.84281000  0.69425000  0.72568000  1
  O  O549  1  0.00018000  0.18387000  0.20490000  1
  O  O550  1  0.75374000  0.58016000  0.71758000  1
  O  O551  1  0.09978000  0.61549000  0.75152000  1
  O  O552  1  0.02328000  0.24477000  0.16876000  1
  O  O553  1  0.07097000  0.73817000  0.75354000  1
  O  O554  1  0.67819000  0.05979000  0.10558000  1
  O  O555  1  0.26949000  0.73289000  0.89298000  1
  O  O556  1  0.88371000  0.67101000  0.66562000  1
  O  O557  1  0.86905000  0.95235000  0.06270000  1
  O  O558  1  0.95432000  0.77602000  0.70624000  1
  O  O559  1  0.43284000  0.80574000  0.83848000  1
  O  O560  1  0.03143000  0.34281000  0.22568000  1
  O  O561  1  0.02103000  0.50018000  0.70490000  1
  O  O562  1  0.13742000  0.25374000  0.21758000  1
  O  O563  1  0.13603000  0.59978000  0.25152000  1
  O  O564  1  0.92399000  0.52328000  0.66876000  1
  O  O565  1  0.01537000  0.57097000  0.25354000  1
  O  O566  1  0.04579000  0.17819000  0.60558000  1
  O  O567  1  0.16009000  0.76949000  0.39298000  1
  O  O568  1  0.99461000  0.38371000  0.16562000  1
  O  O569  1  0.11035000  0.36905000  0.56270000  1
  O  O570  1  0.93022000  0.45432000  0.20624000  1
  O  O571  1  0.03274000  0.93284000  0.33848000  1
  O  O572  1  0.88287000  0.53143000  0.72568000  1
  O  O573  1  0.20472000  0.52103000  0.20490000  1
  O  O574  1  0.96384000  0.63742000  0.71758000  1
  O  O575  1  0.65174000  0.63603000  0.75152000  1
  O  O576  1  0.14548000  0.42399000  0.16876000  1
  O  O577  1  0.68257000  0.51537000  0.75354000  1
  O  O578  1  0.42739000  0.54579000  0.10558000  1
  O  O579  1  0.62349000  0.66009000  0.89298000  1
  O  O580  1  0.78191000  0.49461000  0.66562000  1
  O  O581  1  0.19365000  0.61035000  0.06270000  1
  O  O582  1  0.75192000  0.43022000  0.70624000  1
  O  O583  1  0.40564000  0.53274000  0.83848000  1
  Zr  Zr584  1  0.75717000  0.69511000  0.74992000  1
  Zr  Zr585  1  0.90356000  0.65356000  0.80712000  1
  Zr  Zr586  1  0.05481000  0.25717000  0.24992000  1
  Zr  Zr587  1  0.15356000  0.40356000  0.30712000  1
  Zr  Zr588  1  0.99275000  0.55481000  0.74992000  1
  Zr  Zr589  1  0.19511000  0.49275000  0.24992000  1
  Zr  Zr590  1  0.24283000  0.30489000  0.25008000  1
  Zr  Zr591  1  0.09644000  0.34644000  0.19288000  1
  Zr  Zr592  1  0.94519000  0.74283000  0.75008000  1
  Zr  Zr593  1  0.84644000  0.59644000  0.69288000  1
  Zr  Zr594  1  0.00725000  0.44519000  0.25008000  1
  Zr  Zr595  1  0.80489000  0.50725000  0.75008000  1
