# generated using pymatgen
data_Zr3H33(C9O2)8
_symmetry_space_group_name_H-M   'P 1'
_cell_length_a   22.07100000
_cell_length_b   22.07100000
_cell_length_c   22.07100000
_cell_angle_alpha   90.00000000
_cell_angle_beta   90.00000000
_cell_angle_gamma   90.00000000
_symmetry_Int_Tables_number   1
_chemical_formula_structural   Zr3H33(C9O2)8
_chemical_formula_sum   'Zr6 H66 C144 O32'
_cell_volume   10751.42506391
_cell_formula_units_Z   2
loop_
 _symmetry_equiv_pos_site_id
 _symmetry_equiv_pos_as_xyz
  1  'x, y, z'
loop_
 _atom_site_type_symbol
 _atom_site_label
 _atom_site_symmetry_multiplicity
 _atom_site_fract_x
 _atom_site_fract_y
 _atom_site_fract_z
 _atom_site_occupancy
  Zr  Zr0  1  0.00000000  0.00002000  0.88773000  1
  Zr  Zr1  1  0.88773000  0.00000000  0.00002000  1
  Zr  Zr2  1  0.00002000  0.88773000  0.00000000  1
  Zr  Zr3  1  0.00000000  0.99998000  0.11227000  1
  Zr  Zr4  1  0.11227000  0.00000000  0.99998000  1
  Zr  Zr5  1  0.99998000  0.11227000  0.00000000  1
  H  H6  1  0.50010000  0.99900000  0.70300000  1
  H  H7  1  0.40860000  0.00050000  0.54470000  1
  H  H8  1  0.59140000  0.99930000  0.54460000  1
  H  H9  1  0.73160000  0.00000000  0.88170000  1
  H  H10  1  0.65190000  0.00230000  0.81250000  1
  H  H11  1  0.77170000  0.00110000  0.67440000  1
  H  H12  1  0.85140000  0.99880000  0.74350000  1
  H  H13  1  0.14900000  0.99930000  0.74410000  1
  H  H14  1  0.22880000  0.00110000  0.67500000  1
  H  H15  1  0.34850000  0.00200000  0.81320000  1
  H  H16  1  0.26870000  0.00020000  0.88230000  1
  H  H17  1  0.70300000  0.50010000  0.99900000  1
  H  H18  1  0.54470000  0.40860000  0.00050000  1
  H  H19  1  0.54460000  0.59140000  0.99930000  1
  H  H20  1  0.88170000  0.73160000  0.00000000  1
  H  H21  1  0.81250000  0.65190000  0.00230000  1
  H  H22  1  0.67440000  0.77170000  0.00110000  1
  H  H23  1  0.74350000  0.85140000  0.99880000  1
  H  H24  1  0.74410000  0.14900000  0.99930000  1
  H  H25  1  0.67500000  0.22880000  0.00110000  1
  H  H26  1  0.81320000  0.34850000  0.00200000  1
  H  H27  1  0.88230000  0.26870000  0.00020000  1
  H  H28  1  0.00100000  0.40880000  0.54480000  1
  H  H29  1  0.00070000  0.50000000  0.70320000  1
  H  H30  1  0.99890000  0.59160000  0.54500000  1
  H  H31  1  0.99960000  0.85110000  0.74400000  1
  H  H32  1  0.00100000  0.77130000  0.67490000  1
  H  H33  1  0.00080000  0.65150000  0.81300000  1
  H  H34  1  0.99950000  0.73130000  0.88220000  1
  H  H35  1  0.99930000  0.14900000  0.74360000  1
  H  H36  1  0.00010000  0.22890000  0.67450000  1
  H  H37  1  0.00060000  0.34850000  0.81280000  1
  H  H38  1  0.99980000  0.26870000  0.88190000  1
  H  H39  1  0.49990000  0.00100000  0.29700000  1
  H  H40  1  0.59140000  0.99950000  0.45530000  1
  H  H41  1  0.40860000  0.00070000  0.45540000  1
  H  H42  1  0.26840000  0.00000000  0.11830000  1
  H  H43  1  0.34810000  0.99770000  0.18750000  1
  H  H44  1  0.22830000  0.99890000  0.32560000  1
  H  H45  1  0.14860000  0.00120000  0.25650000  1
  H  H46  1  0.85100000  0.00070000  0.25590000  1
  H  H47  1  0.77120000  0.99890000  0.32500000  1
  H  H48  1  0.65150000  0.99800000  0.18680000  1
  H  H49  1  0.73130000  0.99980000  0.11770000  1
  H  H50  1  0.29700000  0.49990000  0.00100000  1
  H  H51  1  0.45530000  0.59140000  0.99950000  1
  H  H52  1  0.45540000  0.40860000  0.00070000  1
  H  H53  1  0.11830000  0.26840000  0.00000000  1
  H  H54  1  0.18750000  0.34810000  0.99770000  1
  H  H55  1  0.32560000  0.22830000  0.99890000  1
  H  H56  1  0.25650000  0.14860000  0.00120000  1
  H  H57  1  0.25590000  0.85100000  0.00070000  1
  H  H58  1  0.32500000  0.77120000  0.99890000  1
  H  H59  1  0.18680000  0.65150000  0.99800000  1
  H  H60  1  0.11770000  0.73130000  0.99980000  1
  H  H61  1  0.99900000  0.59120000  0.45520000  1
  H  H62  1  0.99930000  0.50000000  0.29680000  1
  H  H63  1  0.00110000  0.40840000  0.45500000  1
  H  H64  1  0.00040000  0.14890000  0.25600000  1
  H  H65  1  0.99900000  0.22870000  0.32510000  1
  H  H66  1  0.99920000  0.34850000  0.18700000  1
  H  H67  1  0.00050000  0.26870000  0.11780000  1
  H  H68  1  0.00070000  0.85100000  0.25640000  1
  H  H69  1  0.99990000  0.77110000  0.32550000  1
  H  H70  1  0.99940000  0.65150000  0.18720000  1
  H  H71  1  0.00020000  0.73130000  0.11810000  1
  C  C72  1  0.85711000  0.99987000  0.85714000  1
  C  C73  1  0.14309000  0.00011000  0.85692000  1
  C  C74  1  0.55459000  0.99910000  0.62890000  1
  C  C75  1  0.50010000  0.99920000  0.66043000  1
  C  C76  1  0.44551000  0.99970000  0.62900000  1
  C  C77  1  0.44547000  0.00010000  0.56600000  1
  C  C78  1  0.50000000  0.00000000  0.53448000  1
  C  C79  1  0.55455000  0.99940000  0.56590000  1
  C  C80  1  0.61000000  0.99980000  0.66270000  1
  C  C81  1  0.65130000  0.00130000  0.69510000  1
  C  C82  1  0.79924000  0.99920000  0.81930000  1
  C  C83  1  0.73970000  0.00020000  0.83987000  1
  C  C84  1  0.69216000  0.00160000  0.79860000  1
  C  C85  1  0.70410000  0.00190000  0.73680000  1
  C  C86  1  0.76360000  0.00080000  0.71620000  1
  C  C87  1  0.81118000  0.99950000  0.75750000  1
  C  C88  1  0.38950000  0.00110000  0.66330000  1
  C  C89  1  0.34920000  0.00140000  0.69390000  1
  C  C90  1  0.20113000  0.99950000  0.81990000  1
  C  C91  1  0.18920000  0.99980000  0.75800000  1
  C  C92  1  0.23680000  0.00090000  0.71680000  1
  C  C93  1  0.29630000  0.00170000  0.73740000  1
  C  C94  1  0.30824000  0.00150000  0.79930000  1
  C  C95  1  0.26060000  0.00040000  0.84049000  1
  C  C96  1  0.85714000  0.85711000  0.99987000  1
  C  C97  1  0.85692000  0.14309000  0.00011000  1
  C  C98  1  0.62890000  0.55459000  0.99910000  1
  C  C99  1  0.66043000  0.50010000  0.99920000  1
  C  C100  1  0.62900000  0.44551000  0.99970000  1
  C  C101  1  0.56600000  0.44547000  0.00010000  1
  C  C102  1  0.53448000  0.50000000  0.00000000  1
  C  C103  1  0.56590000  0.55455000  0.99940000  1
  C  C104  1  0.66270000  0.61000000  0.99980000  1
  C  C105  1  0.69510000  0.65130000  0.00130000  1
  C  C106  1  0.81930000  0.79924000  0.99920000  1
  C  C107  1  0.83987000  0.73970000  0.00020000  1
  C  C108  1  0.79860000  0.69216000  0.00160000  1
  C  C109  1  0.73680000  0.70410000  0.00190000  1
  C  C110  1  0.71620000  0.76360000  0.00080000  1
  C  C111  1  0.75750000  0.81118000  0.99950000  1
  C  C112  1  0.66330000  0.38950000  0.00110000  1
  C  C113  1  0.69390000  0.34920000  0.00140000  1
  C  C114  1  0.81990000  0.20113000  0.99950000  1
  C  C115  1  0.75800000  0.18920000  0.99980000  1
  C  C116  1  0.71680000  0.23680000  0.00090000  1
  C  C117  1  0.73740000  0.29630000  0.00170000  1
  C  C118  1  0.79930000  0.30824000  0.00150000  1
  C  C119  1  0.84049000  0.26060000  0.00040000  1
  C  C120  1  0.99987000  0.85714000  0.85711000  1
  C  C121  1  0.00011000  0.85692000  0.14309000  1
  C  C122  1  0.99990000  0.50020000  0.53468000  1
  C  C123  1  0.00070000  0.44563000  0.56610000  1
  C  C124  1  0.00100000  0.44556000  0.62910000  1
  C  C125  1  0.00050000  0.50010000  0.66064000  1
  C  C126  1  0.99970000  0.55463000  0.62920000  1
  C  C127  1  0.99940000  0.55471000  0.56620000  1
  C  C128  1  0.99840000  0.61030000  0.66270000  1
  C  C129  1  0.00190000  0.65140000  0.69500000  1
  C  C130  1  0.99940000  0.79887000  0.81980000  1
  C  C131  1  0.99990000  0.81081000  0.75800000  1
  C  C132  1  0.00070000  0.76320000  0.71670000  1
  C  C133  1  0.00100000  0.70370000  0.73730000  1
  C  C134  1  0.00060000  0.69177000  0.79910000  1
  C  C135  1  0.99980000  0.73930000  0.84037000  1
  C  C136  1  0.99810000  0.38960000  0.66250000  1
  C  C137  1  0.99970000  0.34830000  0.69470000  1
  C  C138  1  0.99950000  0.20114000  0.81940000  1
  C  C139  1  0.99960000  0.18930000  0.75760000  1
  C  C140  1  0.00000000  0.23690000  0.71636000  1
  C  C141  1  0.00040000  0.29640000  0.73700000  1
  C  C142  1  0.00030000  0.30826000  0.79890000  1
  C  C143  1  0.99990000  0.26060000  0.84006000  1
  C  C144  1  0.14289000  0.00013000  0.14286000  1
  C  C145  1  0.85691000  0.99989000  0.14308000  1
  C  C146  1  0.44541000  0.00090000  0.37110000  1
  C  C147  1  0.49990000  0.00080000  0.33957000  1
  C  C148  1  0.55449000  0.00030000  0.37100000  1
  C  C149  1  0.55453000  0.99990000  0.43400000  1
  C  C150  1  0.50000000  0.00000000  0.46552000  1
  C  C151  1  0.44545000  0.00060000  0.43410000  1
  C  C152  1  0.39000000  0.00020000  0.33730000  1
  C  C153  1  0.34870000  0.99870000  0.30490000  1
  C  C154  1  0.20076000  0.00080000  0.18070000  1
  C  C155  1  0.26030000  0.99980000  0.16013000  1
  C  C156  1  0.30784000  0.99840000  0.20140000  1
  C  C157  1  0.29590000  0.99810000  0.26320000  1
  C  C158  1  0.23640000  0.99920000  0.28380000  1
  C  C159  1  0.18882000  0.00050000  0.24250000  1
  C  C160  1  0.61050000  0.99890000  0.33670000  1
  C  C161  1  0.65080000  0.99860000  0.30610000  1
  C  C162  1  0.79887000  0.00050000  0.18010000  1
  C  C163  1  0.81080000  0.00020000  0.24200000  1
  C  C164  1  0.76320000  0.99910000  0.28320000  1
  C  C165  1  0.70370000  0.99830000  0.26260000  1
  C  C166  1  0.69176000  0.99850000  0.20070000  1
  C  C167  1  0.73940000  0.99960000  0.15951000  1
  C  C168  1  0.14286000  0.14289000  0.00013000  1
  C  C169  1  0.14308000  0.85691000  0.99989000  1
  C  C170  1  0.37110000  0.44541000  0.00090000  1
  C  C171  1  0.33957000  0.49990000  0.00080000  1
  C  C172  1  0.37100000  0.55449000  0.00030000  1
  C  C173  1  0.43400000  0.55453000  0.99990000  1
  C  C174  1  0.46552000  0.50000000  0.00000000  1
  C  C175  1  0.43410000  0.44545000  0.00060000  1
  C  C176  1  0.33730000  0.39000000  0.00020000  1
  C  C177  1  0.30490000  0.34870000  0.99870000  1
  C  C178  1  0.18070000  0.20076000  0.00080000  1
  C  C179  1  0.16013000  0.26030000  0.99980000  1
  C  C180  1  0.20140000  0.30784000  0.99840000  1
  C  C181  1  0.26320000  0.29590000  0.99810000  1
  C  C182  1  0.28380000  0.23640000  0.99920000  1
  C  C183  1  0.24250000  0.18882000  0.00050000  1
  C  C184  1  0.33670000  0.61050000  0.99890000  1
  C  C185  1  0.30610000  0.65080000  0.99860000  1
  C  C186  1  0.18010000  0.79887000  0.00050000  1
  C  C187  1  0.24200000  0.81080000  0.00020000  1
  C  C188  1  0.28320000  0.76320000  0.99910000  1
  C  C189  1  0.26260000  0.70370000  0.99830000  1
  C  C190  1  0.20070000  0.69176000  0.99850000  1
  C  C191  1  0.15951000  0.73940000  0.99960000  1
  C  C192  1  0.00013000  0.14286000  0.14289000  1
  C  C193  1  0.99989000  0.14308000  0.85691000  1
  C  C194  1  0.00010000  0.49980000  0.46532000  1
  C  C195  1  0.99930000  0.55437000  0.43390000  1
  C  C196  1  0.99900000  0.55444000  0.37090000  1
  C  C197  1  0.99950000  0.49990000  0.33936000  1
  C  C198  1  0.00030000  0.44537000  0.37080000  1
  C  C199  1  0.00060000  0.44529000  0.43380000  1
  C  C200  1  0.00160000  0.38970000  0.33730000  1
  C  C201  1  0.99810000  0.34860000  0.30500000  1
  C  C202  1  0.00060000  0.20113000  0.18020000  1
  C  C203  1  0.00010000  0.18919000  0.24200000  1
  C  C204  1  0.99930000  0.23680000  0.28330000  1
  C  C205  1  0.99900000  0.29630000  0.26270000  1
  C  C206  1  0.99940000  0.30823000  0.20090000  1
  C  C207  1  0.00020000  0.26070000  0.15963000  1
  C  C208  1  0.00190000  0.61040000  0.33750000  1
  C  C209  1  0.00030000  0.65170000  0.30530000  1
  C  C210  1  0.00050000  0.79886000  0.18060000  1
  C  C211  1  0.00040000  0.81070000  0.24240000  1
  C  C212  1  0.00000000  0.76310000  0.28364000  1
  C  C213  1  0.99960000  0.70360000  0.26300000  1
  C  C214  1  0.99970000  0.69174000  0.20110000  1
  C  C215  1  0.00010000  0.73940000  0.15994000  1
  O  O216  1  0.05503000  0.94496000  0.94500000  1
  O  O217  1  0.83843000  0.99999000  0.91172000  1
  O  O218  1  0.91180000  0.99992000  0.83851000  1
  O  O219  1  0.08819000  0.00004000  0.83833000  1
  O  O220  1  0.16184000  0.00001000  0.91184000  1
  O  O221  1  0.94500000  0.05503000  0.94496000  1
  O  O222  1  0.91172000  0.83843000  0.99999000  1
  O  O223  1  0.83851000  0.91180000  0.99992000  1
  O  O224  1  0.83833000  0.08819000  0.00004000  1
  O  O225  1  0.91184000  0.16184000  0.00001000  1
  O  O226  1  0.94496000  0.94500000  0.05503000  1
  O  O227  1  0.99999000  0.91172000  0.83843000  1
  O  O228  1  0.99992000  0.83851000  0.91180000  1
  O  O229  1  0.00004000  0.83833000  0.08819000  1
  O  O230  1  0.00001000  0.91184000  0.16184000  1
  O  O231  1  0.94497000  0.05504000  0.05500000  1
  O  O232  1  0.16157000  0.00001000  0.08828000  1
  O  O233  1  0.08820000  0.00008000  0.16149000  1
  O  O234  1  0.91181000  0.99996000  0.16167000  1
  O  O235  1  0.83816000  0.99999000  0.08816000  1
  O  O236  1  0.05500000  0.94497000  0.05504000  1
  O  O237  1  0.08828000  0.16157000  0.00001000  1
  O  O238  1  0.16149000  0.08820000  0.00008000  1
  O  O239  1  0.16167000  0.91181000  0.99996000  1
  O  O240  1  0.08816000  0.83816000  0.99999000  1
  O  O241  1  0.05504000  0.05500000  0.94497000  1
  O  O242  1  0.00001000  0.08828000  0.16157000  1
  O  O243  1  0.00008000  0.16149000  0.08820000  1
  O  O244  1  0.99996000  0.16167000  0.91181000  1
  O  O245  1  0.99999000  0.08816000  0.83816000  1
  O  O246  1  0.94482000  0.94482000  0.94482000  1
  O  O247  1  0.05518000  0.05518000  0.05518000  1
