# generated using pymatgen
data_Zr3H33(C9O2)8
_symmetry_space_group_name_H-M   'P 1'
_cell_length_a   21.98300000
_cell_length_b   21.98300000
_cell_length_c   21.98300000
_cell_angle_alpha   90.00000000
_cell_angle_beta   90.00000000
_cell_angle_gamma   90.00000000
_symmetry_Int_Tables_number   1
_chemical_formula_structural   Zr3H33(C9O2)8
_chemical_formula_sum   'Zr6 H66 C144 O32'
_cell_volume   10623.33506909
_cell_formula_units_Z   2
loop_
 _symmetry_equiv_pos_site_id
 _symmetry_equiv_pos_as_xyz
  1  'x, y, z'
loop_
 _atom_site_type_symbol
 _atom_site_label
 _atom_site_symmetry_multiplicity
 _atom_site_fract_x
 _atom_site_fract_y
 _atom_site_fract_z
 _atom_site_occupancy
  Zr  Zr0  1  0.38774000  0.50002000  0.50003000  1
  Zr  Zr1  1  0.50003000  0.38774000  0.50002000  1
  Zr  Zr2  1  0.50002000  0.50003000  0.38774000  1
  Zr  Zr3  1  0.61226000  0.49998000  0.49997000  1
  Zr  Zr4  1  0.49997000  0.61226000  0.49998000  1
  Zr  Zr5  1  0.49998000  0.49997000  0.61226000  1
  H  H6  1  0.99860000  0.20230000  0.50130000  1
  H  H7  1  0.27130000  0.17440000  0.48900000  1
  H  H8  1  0.35110000  0.24330000  0.49950000  1
  H  H9  1  0.23150000  0.38430000  0.49560000  1
  H  H10  1  0.15160000  0.31110000  0.50240000  1
  H  H11  1  0.64990000  0.24540000  0.50250000  1
  H  H12  1  0.73110000  0.17640000  0.49640000  1
  H  H13  1  0.84720000  0.31450000  0.50110000  1
  H  H14  1  0.76650000  0.38340000  0.49910000  1
  H  H15  1  0.50130000  0.99860000  0.20230000  1
  H  H16  1  0.48900000  0.27130000  0.17440000  1
  H  H17  1  0.49950000  0.35110000  0.24330000  1
  H  H18  1  0.49560000  0.23150000  0.38430000  1
  H  H19  1  0.50240000  0.15160000  0.31110000  1
  H  H20  1  0.50250000  0.64990000  0.24540000  1
  H  H21  1  0.49640000  0.73110000  0.17640000  1
  H  H22  1  0.50110000  0.84720000  0.31450000  1
  H  H23  1  0.49910000  0.76650000  0.38340000  1
  H  H24  1  0.20230000  0.50130000  0.99860000  1
  H  H25  1  0.17440000  0.48900000  0.27130000  1
  H  H26  1  0.24330000  0.49950000  0.35110000  1
  H  H27  1  0.38430000  0.49560000  0.23150000  1
  H  H28  1  0.31110000  0.50240000  0.15160000  1
  H  H29  1  0.24540000  0.50250000  0.64990000  1
  H  H30  1  0.17640000  0.49640000  0.73110000  1
  H  H31  1  0.31450000  0.50110000  0.84720000  1
  H  H32  1  0.38340000  0.49910000  0.76650000  1
  H  H33  1  0.00140000  0.79770000  0.49870000  1
  H  H34  1  0.72870000  0.82560000  0.51100000  1
  H  H35  1  0.64890000  0.75670000  0.50050000  1
  H  H36  1  0.76850000  0.61570000  0.50440000  1
  H  H37  1  0.84840000  0.68890000  0.49760000  1
  H  H38  1  0.35010000  0.75460000  0.49750000  1
  H  H39  1  0.26890000  0.82360000  0.50360000  1
  H  H40  1  0.15280000  0.68550000  0.49890000  1
  H  H41  1  0.23350000  0.61660000  0.50090000  1
  H  H42  1  0.49870000  0.00140000  0.79770000  1
  H  H43  1  0.51100000  0.72870000  0.82560000  1
  H  H44  1  0.50050000  0.64890000  0.75670000  1
  H  H45  1  0.50440000  0.76850000  0.61570000  1
  H  H46  1  0.49760000  0.84840000  0.68890000  1
  H  H47  1  0.49750000  0.35010000  0.75460000  1
  H  H48  1  0.50360000  0.26890000  0.82360000  1
  H  H49  1  0.49890000  0.15280000  0.68550000  1
  H  H50  1  0.50090000  0.23350000  0.61660000  1
  H  H51  1  0.79770000  0.49870000  0.00140000  1
  H  H52  1  0.82560000  0.51100000  0.72870000  1
  H  H53  1  0.75670000  0.50050000  0.64890000  1
  H  H54  1  0.61570000  0.50440000  0.76850000  1
  H  H55  1  0.68890000  0.49760000  0.84840000  1
  H  H56  1  0.75460000  0.49750000  0.35010000  1
  H  H57  1  0.82360000  0.50360000  0.26890000  1
  H  H58  1  0.68550000  0.49890000  0.15280000  1
  H  H59  1  0.61660000  0.50090000  0.23350000  1
  H  H60  1  0.89662000  0.96046000  0.50518000  1
  H  H61  1  0.10439000  0.95737000  0.48776000  1
  H  H62  1  0.89561000  0.04263000  0.51224000  1
  H  H63  1  0.10338000  0.03954000  0.49482000  1
  H  H64  1  0.50518000  0.89662000  0.96046000  1
  H  H65  1  0.48776000  0.10439000  0.95737000  1
  H  H66  1  0.51224000  0.89561000  0.04263000  1
  H  H67  1  0.49482000  0.10338000  0.03954000  1
  H  H68  1  0.04263000  0.51224000  0.89561000  1
  H  H69  1  0.96046000  0.50518000  0.89662000  1
  H  H70  1  0.95737000  0.48776000  0.10439000  1
  H  H71  1  0.03954000  0.49482000  0.10338000  1
  C  C72  1  0.64350000  0.35750000  0.50030000  1
  C  C73  1  0.35800000  0.35620000  0.49980000  1
  C  C74  1  0.94650000  0.12950000  0.50640000  1
  C  C75  1  0.99900000  0.15950000  0.50100000  1
  C  C76  1  0.05410000  0.12950000  0.49500000  1
  C  C77  1  0.05730000  0.06330000  0.49610000  1
  C  C78  1  0.00020000  0.03240000  0.49880000  1
  C  C79  1  0.94190000  0.06530000  0.50650000  1
  C  C80  1  0.10980000  0.16240000  0.49820000  1
  C  C81  1  0.15560000  0.19410000  0.50190000  1
  C  C82  1  0.20410000  0.23530000  0.50190000  1
  C  C83  1  0.26310000  0.21590000  0.49540000  1
  C  C84  1  0.31060000  0.25700000  0.49810000  1
  C  C85  1  0.29760000  0.31840000  0.49880000  1
  C  C86  1  0.23940000  0.34230000  0.49790000  1
  C  C87  1  0.19230000  0.29780000  0.50100000  1
  C  C88  1  0.89150000  0.16540000  0.49930000  1
  C  C89  1  0.84640000  0.19450000  0.50070000  1
  C  C90  1  0.70260000  0.31980000  0.50110000  1
  C  C91  1  0.69030000  0.25940000  0.50130000  1
  C  C92  1  0.73860000  0.21840000  0.49970000  1
  C  C93  1  0.79590000  0.23910000  0.50290000  1
  C  C94  1  0.80690000  0.30020000  0.50140000  1
  C  C95  1  0.75910000  0.34130000  0.50040000  1
  C  C96  1  0.50030000  0.64350000  0.35750000  1
  C  C97  1  0.49980000  0.35800000  0.35620000  1
  C  C98  1  0.50640000  0.94650000  0.12950000  1
  C  C99  1  0.50100000  0.99900000  0.15950000  1
  C  C100  1  0.49500000  0.05410000  0.12950000  1
  C  C101  1  0.49610000  0.05730000  0.06330000  1
  C  C102  1  0.49880000  0.00020000  0.03240000  1
  C  C103  1  0.50650000  0.94190000  0.06530000  1
  C  C104  1  0.49820000  0.10980000  0.16240000  1
  C  C105  1  0.50190000  0.15560000  0.19410000  1
  C  C106  1  0.50190000  0.20410000  0.23530000  1
  C  C107  1  0.49540000  0.26310000  0.21590000  1
  C  C108  1  0.49810000  0.31060000  0.25700000  1
  C  C109  1  0.49880000  0.29760000  0.31840000  1
  C  C110  1  0.49790000  0.23940000  0.34230000  1
  C  C111  1  0.50100000  0.19230000  0.29780000  1
  C  C112  1  0.49930000  0.89150000  0.16540000  1
  C  C113  1  0.50070000  0.84640000  0.19450000  1
  C  C114  1  0.50110000  0.70260000  0.31980000  1
  C  C115  1  0.50130000  0.69030000  0.25940000  1
  C  C116  1  0.49970000  0.73860000  0.21840000  1
  C  C117  1  0.50290000  0.79590000  0.23910000  1
  C  C118  1  0.50140000  0.80690000  0.30020000  1
  C  C119  1  0.50040000  0.75910000  0.34130000  1
  C  C120  1  0.35750000  0.50030000  0.64350000  1
  C  C121  1  0.35620000  0.49980000  0.35800000  1
  C  C122  1  0.12950000  0.50640000  0.94650000  1
  C  C123  1  0.15950000  0.50100000  0.99900000  1
  C  C124  1  0.12950000  0.49500000  0.05410000  1
  C  C125  1  0.06330000  0.49610000  0.05730000  1
  C  C126  1  0.03240000  0.49880000  0.00020000  1
  C  C127  1  0.06530000  0.50650000  0.94190000  1
  C  C128  1  0.16240000  0.49820000  0.10980000  1
  C  C129  1  0.19410000  0.50190000  0.15560000  1
  C  C130  1  0.23530000  0.50190000  0.20410000  1
  C  C131  1  0.21590000  0.49540000  0.26310000  1
  C  C132  1  0.25700000  0.49810000  0.31060000  1
  C  C133  1  0.31840000  0.49880000  0.29760000  1
  C  C134  1  0.34230000  0.49790000  0.23940000  1
  C  C135  1  0.29780000  0.50100000  0.19230000  1
  C  C136  1  0.16540000  0.49930000  0.89150000  1
  C  C137  1  0.19450000  0.50070000  0.84640000  1
  C  C138  1  0.31980000  0.50110000  0.70260000  1
  C  C139  1  0.25940000  0.50130000  0.69030000  1
  C  C140  1  0.21840000  0.49970000  0.73860000  1
  C  C141  1  0.23910000  0.50290000  0.79590000  1
  C  C142  1  0.30020000  0.50140000  0.80690000  1
  C  C143  1  0.34130000  0.50040000  0.75910000  1
  C  C144  1  0.35650000  0.64250000  0.49970000  1
  C  C145  1  0.64200000  0.64380000  0.50020000  1
  C  C146  1  0.05350000  0.87050000  0.49360000  1
  C  C147  1  0.00100000  0.84050000  0.49900000  1
  C  C148  1  0.94590000  0.87050000  0.50500000  1
  C  C149  1  0.94270000  0.93670000  0.50390000  1
  C  C150  1  0.99980000  0.96760000  0.50120000  1
  C  C151  1  0.05810000  0.93470000  0.49350000  1
  C  C152  1  0.89020000  0.83760000  0.50180000  1
  C  C153  1  0.84440000  0.80590000  0.49810000  1
  C  C154  1  0.79590000  0.76470000  0.49810000  1
  C  C155  1  0.73690000  0.78410000  0.50460000  1
  C  C156  1  0.68940000  0.74300000  0.50190000  1
  C  C157  1  0.70240000  0.68160000  0.50120000  1
  C  C158  1  0.76060000  0.65770000  0.50210000  1
  C  C159  1  0.80770000  0.70220000  0.49900000  1
  C  C160  1  0.10850000  0.83460000  0.50070000  1
  C  C161  1  0.15360000  0.80550000  0.49930000  1
  C  C162  1  0.29740000  0.68020000  0.49890000  1
  C  C163  1  0.30970000  0.74060000  0.49870000  1
  C  C164  1  0.26140000  0.78160000  0.50030000  1
  C  C165  1  0.20410000  0.76090000  0.49710000  1
  C  C166  1  0.19310000  0.69980000  0.49860000  1
  C  C167  1  0.24090000  0.65870000  0.49960000  1
  C  C168  1  0.49970000  0.35650000  0.64250000  1
  C  C169  1  0.50020000  0.64200000  0.64380000  1
  C  C170  1  0.49360000  0.05350000  0.87050000  1
  C  C171  1  0.49900000  0.00100000  0.84050000  1
  C  C172  1  0.50500000  0.94590000  0.87050000  1
  C  C173  1  0.50390000  0.94270000  0.93670000  1
  C  C174  1  0.50120000  0.99980000  0.96760000  1
  C  C175  1  0.49350000  0.05810000  0.93470000  1
  C  C176  1  0.50180000  0.89020000  0.83760000  1
  C  C177  1  0.49810000  0.84440000  0.80590000  1
  C  C178  1  0.49810000  0.79590000  0.76470000  1
  C  C179  1  0.50460000  0.73690000  0.78410000  1
  C  C180  1  0.50190000  0.68940000  0.74300000  1
  C  C181  1  0.50120000  0.70240000  0.68160000  1
  C  C182  1  0.50210000  0.76060000  0.65770000  1
  C  C183  1  0.49900000  0.80770000  0.70220000  1
  C  C184  1  0.50070000  0.10850000  0.83460000  1
  C  C185  1  0.49930000  0.15360000  0.80550000  1
  C  C186  1  0.49890000  0.29740000  0.68020000  1
  C  C187  1  0.49870000  0.30970000  0.74060000  1
  C  C188  1  0.50030000  0.26140000  0.78160000  1
  C  C189  1  0.49710000  0.20410000  0.76090000  1
  C  C190  1  0.49860000  0.19310000  0.69980000  1
  C  C191  1  0.49960000  0.24090000  0.65870000  1
  C  C192  1  0.64250000  0.49970000  0.35650000  1
  C  C193  1  0.64380000  0.50020000  0.64200000  1
  C  C194  1  0.87050000  0.49360000  0.05350000  1
  C  C195  1  0.84050000  0.49900000  0.00100000  1
  C  C196  1  0.87050000  0.50500000  0.94590000  1
  C  C197  1  0.93670000  0.50390000  0.94270000  1
  C  C198  1  0.96760000  0.50120000  0.99980000  1
  C  C199  1  0.93470000  0.49350000  0.05810000  1
  C  C200  1  0.83760000  0.50180000  0.89020000  1
  C  C201  1  0.80590000  0.49810000  0.84440000  1
  C  C202  1  0.76470000  0.49810000  0.79590000  1
  C  C203  1  0.78410000  0.50460000  0.73690000  1
  C  C204  1  0.74300000  0.50190000  0.68940000  1
  C  C205  1  0.68160000  0.50120000  0.70240000  1
  C  C206  1  0.65770000  0.50210000  0.76060000  1
  C  C207  1  0.70220000  0.49900000  0.80770000  1
  C  C208  1  0.83460000  0.50070000  0.10850000  1
  C  C209  1  0.80550000  0.49930000  0.15360000  1
  C  C210  1  0.68020000  0.49890000  0.29740000  1
  C  C211  1  0.74060000  0.49870000  0.30970000  1
  C  C212  1  0.78160000  0.50030000  0.26140000  1
  C  C213  1  0.76090000  0.49710000  0.20410000  1
  C  C214  1  0.69980000  0.49860000  0.19310000  1
  C  C215  1  0.65870000  0.49960000  0.24090000  1
  O  O216  1  0.44420000  0.55532000  0.44443000  1
  O  O217  1  0.58801000  0.33829000  0.50022000  1
  O  O218  1  0.41253000  0.33802000  0.49967000  1
  O  O219  1  0.66172000  0.41211000  0.50004000  1
  O  O220  1  0.33828000  0.41221000  0.49994000  1
  O  O221  1  0.44443000  0.44420000  0.55532000  1
  O  O222  1  0.50022000  0.58801000  0.33829000  1
  O  O223  1  0.49967000  0.41253000  0.33802000  1
  O  O224  1  0.50004000  0.66172000  0.41211000  1
  O  O225  1  0.49994000  0.33828000  0.41221000  1
  O  O226  1  0.55532000  0.44443000  0.44420000  1
  O  O227  1  0.33829000  0.50022000  0.58801000  1
  O  O228  1  0.33802000  0.49967000  0.41253000  1
  O  O229  1  0.41211000  0.50004000  0.66172000  1
  O  O230  1  0.41221000  0.49994000  0.33828000  1
  O  O231  1  0.55580000  0.44468000  0.55557000  1
  O  O232  1  0.41199000  0.66171000  0.49978000  1
  O  O233  1  0.58747000  0.66198000  0.50033000  1
  O  O234  1  0.33828000  0.58789000  0.49996000  1
  O  O235  1  0.66172000  0.58779000  0.50006000  1
  O  O236  1  0.55557000  0.55580000  0.44468000  1
  O  O237  1  0.49978000  0.41199000  0.66171000  1
  O  O238  1  0.50033000  0.58747000  0.66198000  1
  O  O239  1  0.49996000  0.33828000  0.58789000  1
  O  O240  1  0.50006000  0.66172000  0.58779000  1
  O  O241  1  0.44468000  0.55557000  0.55580000  1
  O  O242  1  0.66171000  0.49978000  0.41199000  1
  O  O243  1  0.66198000  0.50033000  0.58747000  1
  O  O244  1  0.58789000  0.49996000  0.33828000  1
  O  O245  1  0.58779000  0.50006000  0.66172000  1
  O  O246  1  0.44436000  0.44436000  0.44436000  1
  O  O247  1  0.55564000  0.55564000  0.55564000  1
