# generated using pymatgen
data_Zr3H48(C6O)16
_symmetry_space_group_name_H-M   'P 1'
_cell_length_a   28.13330000
_cell_length_b   28.13330000
_cell_length_c   28.26921102
_cell_angle_alpha   60.15891174
_cell_angle_beta   60.15891174
_cell_angle_gamma   60.00000000
_symmetry_Int_Tables_number   1
_chemical_formula_structural   Zr3H48(C6O)16
_chemical_formula_sum   'Zr12 H192 C384 O64'
_cell_volume   15859.11808971
_cell_formula_units_Z   4
loop_
 _symmetry_equiv_pos_site_id
 _symmetry_equiv_pos_as_xyz
  1  'x, y, z'
loop_
 _atom_site_type_symbol
 _atom_site_label
 _atom_site_symmetry_multiplicity
 _atom_site_fract_x
 _atom_site_fract_y
 _atom_site_fract_z
 _atom_site_occupancy
  C  C0  1  0.94561000  0.77691000  0.64816000  1
  C  C1  1  0.00534000  0.77002000  0.64045000  1
  C  C2  1  0.03035000  0.81082000  0.59845000  1
  C  C3  1  0.08622000  0.80542000  0.58984000  1
  C  C4  1  0.11640000  0.75760000  0.62470000  1
  C  C5  1  0.09262000  0.71362000  0.66484000  1
  C  C6  1  0.03624000  0.72084000  0.67408000  1
  C  C7  1  0.17344000  0.74824000  0.61948000  1
  C  C8  1  0.21993000  0.74533000  0.61351000  1
  C  C9  1  0.27379000  0.74299000  0.60973000  1
  C  C10  1  0.29653000  0.78623000  0.56881000  1
  C  C11  1  0.27195000  0.83235000  0.52585000  1
  C  C12  1  0.29442000  0.87362000  0.48484000  1
  C  C13  1  0.30104000  0.69564000  0.65068000  1
  C  C14  1  0.27956000  0.64726000  0.69442000  1
  C  C15  1  0.30514000  0.60384000  0.73348000  1
  C  C16  1  0.81457000  0.55997000  0.89779000  1
  C  C17  1  0.80882000  0.51372000  0.95134000  1
  C  C18  1  0.71433000  0.33353000  0.15051000  1
  C  C19  1  0.66700000  0.36030000  0.12930000  1
  C  C20  1  0.62610000  0.33930000  0.15330000  1
  C  C21  1  0.62760000  0.28700000  0.20100000  1
  C  C22  1  0.66790000  0.25980000  0.22620000  1
  C  C23  1  0.71510000  0.27920000  0.20430000  1
  C  C24  1  0.72554000  0.08044000  0.38298000  1
  C  C25  1  0.73021000  0.02571000  0.42927000  1
  C  C26  1  0.77932000  0.62706000  0.81430000  1
  C  C27  1  0.77471000  0.57946000  0.87112000  1
  C  C28  1  0.76700000  0.49060000  0.97540000  1
  C  C29  1  0.76230000  0.44270000  0.03270000  1
  C  C30  1  0.76020000  0.40520000  0.07440000  1
  C  C31  1  0.75836000  0.35476000  0.12852000  1
  C  C32  1  0.75866000  0.25726000  0.22542000  1
  C  C33  1  0.76021000  0.20271000  0.27687000  1
  C  C34  1  0.76160000  0.16240000  0.31440000  1
  C  C35  1  0.76605000  0.10685000  0.36105000  1
  C  C36  1  0.77796000  0.94392000  0.50016000  1
  C  C37  1  0.77439000  0.99945000  0.45177000  1
  C  C38  1  0.77691000  0.62932000  0.64816000  1
  C  C39  1  0.77002000  0.58419000  0.64045000  1
  C  C40  1  0.81082000  0.56038000  0.59845000  1
  C  C41  1  0.80542000  0.51852000  0.58984000  1
  C  C42  1  0.75760000  0.50130000  0.62470000  1
  C  C43  1  0.71362000  0.52892000  0.66484000  1
  C  C44  1  0.72084000  0.56884000  0.67408000  1
  C  C45  1  0.74824000  0.45884000  0.61948000  1
  C  C46  1  0.74533000  0.42123000  0.61351000  1
  C  C47  1  0.74299000  0.37349000  0.60973000  1
  C  C48  1  0.78623000  0.34843000  0.56881000  1
  C  C49  1  0.83235000  0.36985000  0.52585000  1
  C  C50  1  0.87362000  0.34712000  0.48484000  1
  C  C51  1  0.69564000  0.35264000  0.65068000  1
  C  C52  1  0.64726000  0.37876000  0.69442000  1
  C  C53  1  0.60384000  0.35754000  0.73348000  1
  C  C54  1  0.55997000  0.72767000  0.89779000  1
  C  C55  1  0.51372000  0.72612000  0.95134000  1
  C  C56  1  0.33353000  0.80163000  0.15051000  1
  C  C57  1  0.36030000  0.84340000  0.12930000  1
  C  C58  1  0.33930000  0.88130000  0.15330000  1
  C  C59  1  0.28700000  0.88440000  0.20100000  1
  C  C60  1  0.25980000  0.84610000  0.22620000  1
  C  C61  1  0.27920000  0.80140000  0.20430000  1
  C  C62  1  0.08044000  0.81104000  0.38298000  1
  C  C63  1  0.02571000  0.81481000  0.42927000  1
  C  C64  1  0.62706000  0.77932000  0.81430000  1
  C  C65  1  0.57946000  0.77471000  0.87112000  1
  C  C66  1  0.49060000  0.76700000  0.97540000  1
  C  C67  1  0.44270000  0.76230000  0.03270000  1
  C  C68  1  0.40520000  0.76020000  0.07440000  1
  C  C69  1  0.35476000  0.75836000  0.12852000  1
  C  C70  1  0.25726000  0.75866000  0.22542000  1
  C  C71  1  0.20271000  0.76021000  0.27687000  1
  C  C72  1  0.16240000  0.76160000  0.31440000  1
  C  C73  1  0.10685000  0.76605000  0.36105000  1
  C  C74  1  0.94392000  0.77796000  0.50016000  1
  C  C75  1  0.99945000  0.77439000  0.45177000  1
  C  C76  1  0.62932000  0.94561000  0.64816000  1
  C  C77  1  0.58419000  0.00534000  0.64045000  1
  C  C78  1  0.56038000  0.03035000  0.59845000  1
  C  C79  1  0.51852000  0.08622000  0.58984000  1
  C  C80  1  0.50130000  0.11640000  0.62470000  1
  C  C81  1  0.52892000  0.09262000  0.66484000  1
  C  C82  1  0.56884000  0.03624000  0.67408000  1
  C  C83  1  0.45884000  0.17344000  0.61948000  1
  C  C84  1  0.42123000  0.21993000  0.61351000  1
  C  C85  1  0.37349000  0.27379000  0.60973000  1
  C  C86  1  0.34843000  0.29653000  0.56881000  1
  C  C87  1  0.36985000  0.27195000  0.52585000  1
  C  C88  1  0.34712000  0.29442000  0.48484000  1
  C  C89  1  0.35264000  0.30104000  0.65068000  1
  C  C90  1  0.37876000  0.27956000  0.69442000  1
  C  C91  1  0.35754000  0.30514000  0.73348000  1
  C  C92  1  0.72767000  0.81457000  0.89779000  1
  C  C93  1  0.72612000  0.80882000  0.95134000  1
  C  C94  1  0.80163000  0.71433000  0.15051000  1
  C  C95  1  0.84340000  0.66700000  0.12930000  1
  C  C96  1  0.88130000  0.62610000  0.15330000  1
  C  C97  1  0.88440000  0.62760000  0.20100000  1
  C  C98  1  0.84610000  0.66790000  0.22620000  1
  C  C99  1  0.80140000  0.71510000  0.20430000  1
  C  C100  1  0.81104000  0.72554000  0.38298000  1
  C  C101  1  0.81481000  0.73021000  0.42927000  1
  C  C102  1  0.77932000  0.77932000  0.81430000  1
  C  C103  1  0.77471000  0.77471000  0.87112000  1
  C  C104  1  0.76700000  0.76700000  0.97540000  1
  C  C105  1  0.76230000  0.76230000  0.03270000  1
  C  C106  1  0.76020000  0.76020000  0.07440000  1
  C  C107  1  0.75836000  0.75836000  0.12852000  1
  C  C108  1  0.75866000  0.75866000  0.22542000  1
  C  C109  1  0.76021000  0.76021000  0.27687000  1
  C  C110  1  0.76160000  0.76160000  0.31440000  1
  C  C111  1  0.76605000  0.76605000  0.36105000  1
  C  C112  1  0.77796000  0.77796000  0.50016000  1
  C  C113  1  0.77439000  0.77439000  0.45177000  1
  C  C114  1  0.37068000  0.22309000  0.35184000  1
  C  C115  1  0.41581000  0.22998000  0.35955000  1
  C  C116  1  0.43962000  0.18918000  0.40155000  1
  C  C117  1  0.48148000  0.19458000  0.41016000  1
  C  C118  1  0.49870000  0.24240000  0.37530000  1
  C  C119  1  0.47108000  0.28638000  0.33516000  1
  C  C120  1  0.43116000  0.27916000  0.32592000  1
  C  C121  1  0.54116000  0.25176000  0.38052000  1
  C  C122  1  0.57877000  0.25467000  0.38649000  1
  C  C123  1  0.62651000  0.25701000  0.39027000  1
  C  C124  1  0.65157000  0.21377000  0.43119000  1
  C  C125  1  0.63015000  0.16765000  0.47415000  1
  C  C126  1  0.65288000  0.12638000  0.51516000  1
  C  C127  1  0.64736000  0.30436000  0.34932000  1
  C  C128  1  0.62124000  0.35274000  0.30558000  1
  C  C129  1  0.64246000  0.39616000  0.26652000  1
  C  C130  1  0.27233000  0.44003000  0.10221000  1
  C  C131  1  0.27388000  0.48628000  0.04866000  1
  C  C132  1  0.19837000  0.66647000  0.84949000  1
  C  C133  1  0.15660000  0.63970000  0.87070000  1
  C  C134  1  0.11870000  0.66070000  0.84670000  1
  C  C135  1  0.11560000  0.71300000  0.79900000  1
  C  C136  1  0.15390000  0.74020000  0.77380000  1
  C  C137  1  0.19860000  0.72080000  0.79570000  1
  C  C138  1  0.18896000  0.91956000  0.61702000  1
  C  C139  1  0.18519000  0.97429000  0.57073000  1
  C  C140  1  0.22068000  0.37294000  0.18570000  1
  C  C141  1  0.22529000  0.42054000  0.12888000  1
  C  C142  1  0.23300000  0.50940000  0.02460000  1
  C  C143  1  0.23770000  0.55730000  0.96730000  1
  C  C144  1  0.23980000  0.59480000  0.92560000  1
  C  C145  1  0.24164000  0.64524000  0.87148000  1
  C  C146  1  0.24134000  0.74274000  0.77458000  1
  C  C147  1  0.23979000  0.79729000  0.72313000  1
  C  C148  1  0.23840000  0.83760000  0.68560000  1
  C  C149  1  0.23395000  0.89315000  0.63895000  1
  C  C150  1  0.22204000  0.05608000  0.49984000  1
  C  C151  1  0.22561000  0.00055000  0.54823000  1
  C  C152  1  0.22309000  0.05439000  0.35184000  1
  C  C153  1  0.22998000  0.99466000  0.35955000  1
  C  C154  1  0.18918000  0.96965000  0.40155000  1
  C  C155  1  0.19458000  0.91378000  0.41016000  1
  C  C156  1  0.24240000  0.88360000  0.37530000  1
  C  C157  1  0.28638000  0.90738000  0.33516000  1
  C  C158  1  0.27916000  0.96376000  0.32592000  1
  C  C159  1  0.25176000  0.82656000  0.38052000  1
  C  C160  1  0.25467000  0.78007000  0.38649000  1
  C  C161  1  0.25701000  0.72621000  0.39027000  1
  C  C162  1  0.21377000  0.70347000  0.43119000  1
  C  C163  1  0.16765000  0.72805000  0.47415000  1
  C  C164  1  0.12638000  0.70558000  0.51516000  1
  C  C165  1  0.30436000  0.69896000  0.34932000  1
  C  C166  1  0.35274000  0.72044000  0.30558000  1
  C  C167  1  0.39616000  0.69486000  0.26652000  1
  C  C168  1  0.44003000  0.18543000  0.10221000  1
  C  C169  1  0.48628000  0.19118000  0.04866000  1
  C  C170  1  0.66647000  0.28567000  0.84949000  1
  C  C171  1  0.63970000  0.33300000  0.87070000  1
  C  C172  1  0.66070000  0.37390000  0.84670000  1
  C  C173  1  0.71300000  0.37240000  0.79900000  1
  C  C174  1  0.74020000  0.33210000  0.77380000  1
  C  C175  1  0.72080000  0.28490000  0.79570000  1
  C  C176  1  0.91956000  0.27446000  0.61702000  1
  C  C177  1  0.97429000  0.26979000  0.57073000  1
  C  C178  1  0.37294000  0.22068000  0.18570000  1
  C  C179  1  0.42054000  0.22529000  0.12888000  1
  C  C180  1  0.50940000  0.23300000  0.02460000  1
  C  C181  1  0.55730000  0.23770000  0.96730000  1
  C  C182  1  0.59480000  0.23980000  0.92560000  1
  C  C183  1  0.64524000  0.24164000  0.87148000  1
  C  C184  1  0.74274000  0.24134000  0.77458000  1
  C  C185  1  0.79729000  0.23979000  0.72313000  1
  C  C186  1  0.83760000  0.23840000  0.68560000  1
  C  C187  1  0.89315000  0.23395000  0.63895000  1
  C  C188  1  0.05608000  0.22204000  0.49984000  1
  C  C189  1  0.00055000  0.22561000  0.54823000  1
  C  C190  1  0.05439000  0.37068000  0.35184000  1
  C  C191  1  0.99466000  0.41581000  0.35955000  1
  C  C192  1  0.96965000  0.43962000  0.40155000  1
  C  C193  1  0.91378000  0.48148000  0.41016000  1
  C  C194  1  0.88360000  0.49870000  0.37530000  1
  C  C195  1  0.90738000  0.47108000  0.33516000  1
  C  C196  1  0.96376000  0.43116000  0.32592000  1
  C  C197  1  0.82656000  0.54116000  0.38052000  1
  C  C198  1  0.78007000  0.57877000  0.38649000  1
  C  C199  1  0.72621000  0.62651000  0.39027000  1
  C  C200  1  0.70347000  0.65157000  0.43119000  1
  C  C201  1  0.72805000  0.63015000  0.47415000  1
  C  C202  1  0.70558000  0.65288000  0.51516000  1
  C  C203  1  0.69896000  0.64736000  0.34932000  1
  C  C204  1  0.72044000  0.62124000  0.30558000  1
  C  C205  1  0.69486000  0.64246000  0.26652000  1
  C  C206  1  0.18543000  0.27233000  0.10221000  1
  C  C207  1  0.19118000  0.27388000  0.04866000  1
  C  C208  1  0.28567000  0.19837000  0.84949000  1
  C  C209  1  0.33300000  0.15660000  0.87070000  1
  C  C210  1  0.37390000  0.11870000  0.84670000  1
  C  C211  1  0.37240000  0.11560000  0.79900000  1
  C  C212  1  0.33210000  0.15390000  0.77380000  1
  C  C213  1  0.28490000  0.19860000  0.79570000  1
  C  C214  1  0.27446000  0.18896000  0.61702000  1
  C  C215  1  0.26979000  0.18519000  0.57073000  1
  C  C216  1  0.22068000  0.22068000  0.18570000  1
  C  C217  1  0.22529000  0.22529000  0.12888000  1
  C  C218  1  0.23300000  0.23300000  0.02460000  1
  C  C219  1  0.23770000  0.23770000  0.96730000  1
  C  C220  1  0.23980000  0.23980000  0.92560000  1
  C  C221  1  0.24164000  0.24164000  0.87148000  1
  C  C222  1  0.24134000  0.24134000  0.77458000  1
  C  C223  1  0.23979000  0.23979000  0.72313000  1
  C  C224  1  0.23840000  0.23840000  0.68560000  1
  C  C225  1  0.23395000  0.23395000  0.63895000  1
  C  C226  1  0.22204000  0.22204000  0.49984000  1
  C  C227  1  0.22561000  0.22561000  0.54823000  1
  C  C228  1  0.05439000  0.22309000  0.35184000  1
  C  C229  1  0.99466000  0.22998000  0.35955000  1
  C  C230  1  0.96965000  0.18918000  0.40155000  1
  C  C231  1  0.91378000  0.19458000  0.41016000  1
  C  C232  1  0.88360000  0.24240000  0.37530000  1
  C  C233  1  0.90738000  0.28638000  0.33516000  1
  C  C234  1  0.96376000  0.27916000  0.32592000  1
  C  C235  1  0.82656000  0.25176000  0.38052000  1
  C  C236  1  0.78007000  0.25467000  0.38649000  1
  C  C237  1  0.72621000  0.25701000  0.39027000  1
  C  C238  1  0.70347000  0.21377000  0.43119000  1
  C  C239  1  0.72805000  0.16765000  0.47415000  1
  C  C240  1  0.70558000  0.12638000  0.51516000  1
  C  C241  1  0.69896000  0.30436000  0.34932000  1
  C  C242  1  0.72044000  0.35274000  0.30558000  1
  C  C243  1  0.69486000  0.39616000  0.26652000  1
  C  C244  1  0.18543000  0.44003000  0.10221000  1
  C  C245  1  0.19118000  0.48628000  0.04866000  1
  C  C246  1  0.28567000  0.66647000  0.84949000  1
  C  C247  1  0.33300000  0.63970000  0.87070000  1
  C  C248  1  0.37390000  0.66070000  0.84670000  1
  C  C249  1  0.37240000  0.71300000  0.79900000  1
  C  C250  1  0.33210000  0.74020000  0.77380000  1
  C  C251  1  0.28490000  0.72080000  0.79570000  1
  C  C252  1  0.27446000  0.91956000  0.61702000  1
  C  C253  1  0.26979000  0.97429000  0.57073000  1
  C  C254  1  0.22309000  0.37068000  0.35184000  1
  C  C255  1  0.22998000  0.41581000  0.35955000  1
  C  C256  1  0.18918000  0.43962000  0.40155000  1
  C  C257  1  0.19458000  0.48148000  0.41016000  1
  C  C258  1  0.24240000  0.49870000  0.37530000  1
  C  C259  1  0.28638000  0.47108000  0.33516000  1
  C  C260  1  0.27916000  0.43116000  0.32592000  1
  C  C261  1  0.25176000  0.54116000  0.38052000  1
  C  C262  1  0.25467000  0.57877000  0.38649000  1
  C  C263  1  0.25701000  0.62651000  0.39027000  1
  C  C264  1  0.21377000  0.65157000  0.43119000  1
  C  C265  1  0.16765000  0.63015000  0.47415000  1
  C  C266  1  0.12638000  0.65288000  0.51516000  1
  C  C267  1  0.30436000  0.64736000  0.34932000  1
  C  C268  1  0.35274000  0.62124000  0.30558000  1
  C  C269  1  0.39616000  0.64246000  0.26652000  1
  C  C270  1  0.44003000  0.27233000  0.10221000  1
  C  C271  1  0.48628000  0.27388000  0.04866000  1
  C  C272  1  0.66647000  0.19837000  0.84949000  1
  C  C273  1  0.63970000  0.15660000  0.87070000  1
  C  C274  1  0.66070000  0.11870000  0.84670000  1
  C  C275  1  0.71300000  0.11560000  0.79900000  1
  C  C276  1  0.74020000  0.15390000  0.77380000  1
  C  C277  1  0.72080000  0.19860000  0.79570000  1
  C  C278  1  0.91956000  0.18896000  0.61702000  1
  C  C279  1  0.97429000  0.18519000  0.57073000  1
  C  C280  1  0.37068000  0.05439000  0.35184000  1
  C  C281  1  0.41581000  0.99466000  0.35955000  1
  C  C282  1  0.43962000  0.96965000  0.40155000  1
  C  C283  1  0.48148000  0.91378000  0.41016000  1
  C  C284  1  0.49870000  0.88360000  0.37530000  1
  C  C285  1  0.47108000  0.90738000  0.33516000  1
  C  C286  1  0.43116000  0.96376000  0.32592000  1
  C  C287  1  0.54116000  0.82656000  0.38052000  1
  C  C288  1  0.57877000  0.78007000  0.38649000  1
  C  C289  1  0.62651000  0.72621000  0.39027000  1
  C  C290  1  0.65157000  0.70347000  0.43119000  1
  C  C291  1  0.63015000  0.72805000  0.47415000  1
  C  C292  1  0.65288000  0.70558000  0.51516000  1
  C  C293  1  0.64736000  0.69896000  0.34932000  1
  C  C294  1  0.62124000  0.72044000  0.30558000  1
  C  C295  1  0.64246000  0.69486000  0.26652000  1
  C  C296  1  0.27233000  0.18543000  0.10221000  1
  C  C297  1  0.27388000  0.19118000  0.04866000  1
  C  C298  1  0.19837000  0.28567000  0.84949000  1
  C  C299  1  0.15660000  0.33300000  0.87070000  1
  C  C300  1  0.11870000  0.37390000  0.84670000  1
  C  C301  1  0.11560000  0.37240000  0.79900000  1
  C  C302  1  0.15390000  0.33210000  0.77380000  1
  C  C303  1  0.19860000  0.28490000  0.79570000  1
  C  C304  1  0.18896000  0.27446000  0.61702000  1
  C  C305  1  0.18519000  0.26979000  0.57073000  1
  C  C306  1  0.62932000  0.77691000  0.64816000  1
  C  C307  1  0.58419000  0.77002000  0.64045000  1
  C  C308  1  0.56038000  0.81082000  0.59845000  1
  C  C309  1  0.51852000  0.80542000  0.58984000  1
  C  C310  1  0.50130000  0.75760000  0.62470000  1
  C  C311  1  0.52892000  0.71362000  0.66484000  1
  C  C312  1  0.56884000  0.72084000  0.67408000  1
  C  C313  1  0.45884000  0.74824000  0.61948000  1
  C  C314  1  0.42123000  0.74533000  0.61351000  1
  C  C315  1  0.37349000  0.74299000  0.60973000  1
  C  C316  1  0.34843000  0.78623000  0.56881000  1
  C  C317  1  0.36985000  0.83235000  0.52585000  1
  C  C318  1  0.34712000  0.87362000  0.48484000  1
  C  C319  1  0.35264000  0.69564000  0.65068000  1
  C  C320  1  0.37876000  0.64726000  0.69442000  1
  C  C321  1  0.35754000  0.60384000  0.73348000  1
  C  C322  1  0.72767000  0.55997000  0.89779000  1
  C  C323  1  0.72612000  0.51372000  0.95134000  1
  C  C324  1  0.80163000  0.33353000  0.15051000  1
  C  C325  1  0.84340000  0.36030000  0.12930000  1
  C  C326  1  0.88130000  0.33930000  0.15330000  1
  C  C327  1  0.88440000  0.28700000  0.20100000  1
  C  C328  1  0.84610000  0.25980000  0.22620000  1
  C  C329  1  0.80140000  0.27920000  0.20430000  1
  C  C330  1  0.81104000  0.08044000  0.38298000  1
  C  C331  1  0.81481000  0.02571000  0.42927000  1
  C  C332  1  0.77691000  0.94561000  0.64816000  1
  C  C333  1  0.77002000  0.00534000  0.64045000  1
  C  C334  1  0.81082000  0.03035000  0.59845000  1
  C  C335  1  0.80542000  0.08622000  0.58984000  1
  C  C336  1  0.75760000  0.11640000  0.62470000  1
  C  C337  1  0.71362000  0.09262000  0.66484000  1
  C  C338  1  0.72084000  0.03624000  0.67408000  1
  C  C339  1  0.74824000  0.17344000  0.61948000  1
  C  C340  1  0.74533000  0.21993000  0.61351000  1
  C  C341  1  0.74299000  0.27379000  0.60973000  1
  C  C342  1  0.78623000  0.29653000  0.56881000  1
  C  C343  1  0.83235000  0.27195000  0.52585000  1
  C  C344  1  0.87362000  0.29442000  0.48484000  1
  C  C345  1  0.69564000  0.30104000  0.65068000  1
  C  C346  1  0.64726000  0.27956000  0.69442000  1
  C  C347  1  0.60384000  0.30514000  0.73348000  1
  C  C348  1  0.55997000  0.81457000  0.89779000  1
  C  C349  1  0.51372000  0.80882000  0.95134000  1
  C  C350  1  0.33353000  0.71433000  0.15051000  1
  C  C351  1  0.36030000  0.66700000  0.12930000  1
  C  C352  1  0.33930000  0.62610000  0.15330000  1
  C  C353  1  0.28700000  0.62760000  0.20100000  1
  C  C354  1  0.25980000  0.66790000  0.22620000  1
  C  C355  1  0.27920000  0.71510000  0.20430000  1
  C  C356  1  0.08044000  0.72554000  0.38298000  1
  C  C357  1  0.02571000  0.73021000  0.42927000  1
  C  C358  1  0.94561000  0.62932000  0.64816000  1
  C  C359  1  0.00534000  0.58419000  0.64045000  1
  C  C360  1  0.03035000  0.56038000  0.59845000  1
  C  C361  1  0.08622000  0.51852000  0.58984000  1
  C  C362  1  0.11640000  0.50130000  0.62470000  1
  C  C363  1  0.09262000  0.52892000  0.66484000  1
  C  C364  1  0.03624000  0.56884000  0.67408000  1
  C  C365  1  0.17344000  0.45884000  0.61948000  1
  C  C366  1  0.21993000  0.42123000  0.61351000  1
  C  C367  1  0.27379000  0.37349000  0.60973000  1
  C  C368  1  0.29653000  0.34843000  0.56881000  1
  C  C369  1  0.27195000  0.36985000  0.52585000  1
  C  C370  1  0.29442000  0.34712000  0.48484000  1
  C  C371  1  0.30104000  0.35264000  0.65068000  1
  C  C372  1  0.27956000  0.37876000  0.69442000  1
  C  C373  1  0.30514000  0.35754000  0.73348000  1
  C  C374  1  0.81457000  0.72767000  0.89779000  1
  C  C375  1  0.80882000  0.72612000  0.95134000  1
  C  C376  1  0.71433000  0.80163000  0.15051000  1
  C  C377  1  0.66700000  0.84340000  0.12930000  1
  C  C378  1  0.62610000  0.88130000  0.15330000  1
  C  C379  1  0.62760000  0.88440000  0.20100000  1
  C  C380  1  0.66790000  0.84610000  0.22620000  1
  C  C381  1  0.71510000  0.80140000  0.20430000  1
  C  C382  1  0.72554000  0.81104000  0.38298000  1
  C  C383  1  0.73021000  0.81481000  0.42927000  1
  H  H384  1  0.00990000  0.84340000  0.57460000  1
  H  H385  1  0.10260000  0.83380000  0.56080000  1
  H  H386  1  0.11460000  0.67920000  0.68560000  1
  H  H387  1  0.01980000  0.69240000  0.70270000  1
  H  H388  1  0.23790000  0.83360000  0.52660000  1
  H  H389  1  0.24640000  0.64670000  0.69520000  1
  H  H390  1  0.84320000  0.57640000  0.88150000  1
  H  H391  1  0.83500000  0.49890000  0.97030000  1
  H  H392  1  0.66610000  0.39390000  0.09690000  1
  H  H393  1  0.59530000  0.35850000  0.13920000  1
  H  H394  1  0.59900000  0.27100000  0.21570000  1
  H  H395  1  0.66510000  0.22700000  0.25920000  1
  H  H396  1  0.69570000  0.09800000  0.36780000  1
  H  H397  1  0.70320000  0.00780000  0.44400000  1
  H  H398  1  0.27324000  0.90817000  0.45051000  1
  H  H399  1  0.28634000  0.56737000  0.76629000  1
  H  H400  1  0.84340000  0.57210000  0.57460000  1
  H  H401  1  0.83380000  0.50280000  0.56080000  1
  H  H402  1  0.67920000  0.52060000  0.68560000  1
  H  H403  1  0.69240000  0.58510000  0.70270000  1
  H  H404  1  0.83360000  0.40190000  0.52660000  1
  H  H405  1  0.64670000  0.41170000  0.69520000  1
  H  H406  1  0.57640000  0.69890000  0.88150000  1
  H  H407  1  0.49890000  0.69580000  0.97030000  1
  H  H408  1  0.39390000  0.84310000  0.09690000  1
  H  H409  1  0.35850000  0.90700000  0.13920000  1
  H  H410  1  0.27100000  0.91430000  0.21570000  1
  H  H411  1  0.22700000  0.84870000  0.25920000  1
  H  H412  1  0.09800000  0.83850000  0.36780000  1
  H  H413  1  0.00780000  0.84500000  0.44400000  1
  H  H414  1  0.90817000  0.36808000  0.45051000  1
  H  H415  1  0.56737000  0.38000000  0.76629000  1
  H  H416  1  0.57210000  0.00990000  0.57460000  1
  H  H417  1  0.50280000  0.10260000  0.56080000  1
  H  H418  1  0.52060000  0.11460000  0.68560000  1
  H  H419  1  0.58510000  0.01980000  0.70270000  1
  H  H420  1  0.40190000  0.23790000  0.52660000  1
  H  H421  1  0.41170000  0.24640000  0.69520000  1
  H  H422  1  0.69890000  0.84320000  0.88150000  1
  H  H423  1  0.69580000  0.83500000  0.97030000  1
  H  H424  1  0.84310000  0.66610000  0.09690000  1
  H  H425  1  0.90700000  0.59530000  0.13920000  1
  H  H426  1  0.91430000  0.59900000  0.21570000  1
  H  H427  1  0.84870000  0.66510000  0.25920000  1
  H  H428  1  0.83850000  0.69570000  0.36780000  1
  H  H429  1  0.84500000  0.70320000  0.44400000  1
  H  H430  1  0.36808000  0.27324000  0.45051000  1
  H  H431  1  0.38000000  0.28634000  0.76629000  1
  H  H432  1  0.42790000  0.15660000  0.42540000  1
  H  H433  1  0.49720000  0.16620000  0.43920000  1
  H  H434  1  0.47940000  0.32080000  0.31440000  1
  H  H435  1  0.41490000  0.30760000  0.29730000  1
  H  H436  1  0.59810000  0.16640000  0.47340000  1
  H  H437  1  0.58830000  0.35330000  0.30480000  1
  H  H438  1  0.30110000  0.42360000  0.11850000  1
  H  H439  1  0.30420000  0.50110000  0.02970000  1
  H  H440  1  0.15690000  0.60610000  0.90310000  1
  H  H441  1  0.09300000  0.64150000  0.86080000  1
  H  H442  1  0.08570000  0.72900000  0.78430000  1
  H  H443  1  0.15130000  0.77300000  0.74080000  1
  H  H444  1  0.16150000  0.90200000  0.63220000  1
  H  H445  1  0.15500000  0.99220000  0.55600000  1
  H  H446  1  0.63192000  0.09183000  0.54949000  1
  H  H447  1  0.62000000  0.43263000  0.23371000  1
  H  H448  1  0.15660000  0.99010000  0.42540000  1
  H  H449  1  0.16620000  0.89740000  0.43920000  1
  H  H450  1  0.32080000  0.88540000  0.31440000  1
  H  H451  1  0.30760000  0.98020000  0.29730000  1
  H  H452  1  0.16640000  0.76210000  0.47340000  1
  H  H453  1  0.35330000  0.75360000  0.30480000  1
  H  H454  1  0.42360000  0.15680000  0.11850000  1
  H  H455  1  0.50110000  0.16500000  0.02970000  1
  H  H456  1  0.60610000  0.33390000  0.90310000  1
  H  H457  1  0.64150000  0.40470000  0.86080000  1
  H  H458  1  0.72900000  0.40100000  0.78430000  1
  H  H459  1  0.77300000  0.33490000  0.74080000  1
  H  H460  1  0.90200000  0.30430000  0.63220000  1
  H  H461  1  0.99220000  0.29680000  0.55600000  1
  H  H462  1  0.09183000  0.72676000  0.54949000  1
  H  H463  1  0.43263000  0.71366000  0.23371000  1
  H  H464  1  0.99010000  0.42790000  0.42540000  1
  H  H465  1  0.89740000  0.49720000  0.43920000  1
  H  H466  1  0.88540000  0.47940000  0.31440000  1
  H  H467  1  0.98020000  0.41490000  0.29730000  1
  H  H468  1  0.76210000  0.59810000  0.47340000  1
  H  H469  1  0.75360000  0.58830000  0.30480000  1
  H  H470  1  0.15680000  0.30110000  0.11850000  1
  H  H471  1  0.16500000  0.30420000  0.02970000  1
  H  H472  1  0.33390000  0.15690000  0.90310000  1
  H  H473  1  0.40470000  0.09300000  0.86080000  1
  H  H474  1  0.40100000  0.08570000  0.78430000  1
  H  H475  1  0.33490000  0.15130000  0.74080000  1
  H  H476  1  0.30430000  0.16150000  0.63220000  1
  H  H477  1  0.29680000  0.15500000  0.55600000  1
  H  H478  1  0.72676000  0.63192000  0.54949000  1
  H  H479  1  0.71366000  0.62000000  0.23371000  1
  H  H480  1  0.99010000  0.15660000  0.42540000  1
  H  H481  1  0.89740000  0.16620000  0.43920000  1
  H  H482  1  0.88540000  0.32080000  0.31440000  1
  H  H483  1  0.98020000  0.30760000  0.29730000  1
  H  H484  1  0.76210000  0.16640000  0.47340000  1
  H  H485  1  0.75360000  0.35330000  0.30480000  1
  H  H486  1  0.15680000  0.42360000  0.11850000  1
  H  H487  1  0.16500000  0.50110000  0.02970000  1
  H  H488  1  0.33390000  0.60610000  0.90310000  1
  H  H489  1  0.40470000  0.64150000  0.86080000  1
  H  H490  1  0.40100000  0.72900000  0.78430000  1
  H  H491  1  0.33490000  0.77300000  0.74080000  1
  H  H492  1  0.30430000  0.90200000  0.63220000  1
  H  H493  1  0.29680000  0.99220000  0.55600000  1
  H  H494  1  0.72676000  0.09183000  0.54949000  1
  H  H495  1  0.71366000  0.43263000  0.23371000  1
  H  H496  1  0.15660000  0.42790000  0.42540000  1
  H  H497  1  0.16620000  0.49720000  0.43920000  1
  H  H498  1  0.32080000  0.47940000  0.31440000  1
  H  H499  1  0.30760000  0.41490000  0.29730000  1
  H  H500  1  0.16640000  0.59810000  0.47340000  1
  H  H501  1  0.35330000  0.58830000  0.30480000  1
  H  H502  1  0.42360000  0.30110000  0.11850000  1
  H  H503  1  0.50110000  0.30420000  0.02970000  1
  H  H504  1  0.60610000  0.15690000  0.90310000  1
  H  H505  1  0.64150000  0.09300000  0.86080000  1
  H  H506  1  0.72900000  0.08570000  0.78430000  1
  H  H507  1  0.77300000  0.15130000  0.74080000  1
  H  H508  1  0.90200000  0.16150000  0.63220000  1
  H  H509  1  0.99220000  0.15500000  0.55600000  1
  H  H510  1  0.09183000  0.63192000  0.54949000  1
  H  H511  1  0.43263000  0.62000000  0.23371000  1
  H  H512  1  0.42790000  0.99010000  0.42540000  1
  H  H513  1  0.49720000  0.89740000  0.43920000  1
  H  H514  1  0.47940000  0.88540000  0.31440000  1
  H  H515  1  0.41490000  0.98020000  0.29730000  1
  H  H516  1  0.59810000  0.76210000  0.47340000  1
  H  H517  1  0.58830000  0.75360000  0.30480000  1
  H  H518  1  0.30110000  0.15680000  0.11850000  1
  H  H519  1  0.30420000  0.16500000  0.02970000  1
  H  H520  1  0.15690000  0.33390000  0.90310000  1
  H  H521  1  0.09300000  0.40470000  0.86080000  1
  H  H522  1  0.08570000  0.40100000  0.78430000  1
  H  H523  1  0.15130000  0.33490000  0.74080000  1
  H  H524  1  0.16150000  0.30430000  0.63220000  1
  H  H525  1  0.15500000  0.29680000  0.55600000  1
  H  H526  1  0.63192000  0.72676000  0.54949000  1
  H  H527  1  0.62000000  0.71366000  0.23371000  1
  H  H528  1  0.57210000  0.84340000  0.57460000  1
  H  H529  1  0.50280000  0.83380000  0.56080000  1
  H  H530  1  0.52060000  0.67920000  0.68560000  1
  H  H531  1  0.58510000  0.69240000  0.70270000  1
  H  H532  1  0.40190000  0.83360000  0.52660000  1
  H  H533  1  0.41170000  0.64670000  0.69520000  1
  H  H534  1  0.69890000  0.57640000  0.88150000  1
  H  H535  1  0.69580000  0.49890000  0.97030000  1
  H  H536  1  0.84310000  0.39390000  0.09690000  1
  H  H537  1  0.90700000  0.35850000  0.13920000  1
  H  H538  1  0.91430000  0.27100000  0.21570000  1
  H  H539  1  0.84870000  0.22700000  0.25920000  1
  H  H540  1  0.83850000  0.09800000  0.36780000  1
  H  H541  1  0.84500000  0.00780000  0.44400000  1
  H  H542  1  0.36808000  0.90817000  0.45051000  1
  H  H543  1  0.38000000  0.56737000  0.76629000  1
  H  H544  1  0.84340000  0.00990000  0.57460000  1
  H  H545  1  0.83380000  0.10260000  0.56080000  1
  H  H546  1  0.67920000  0.11460000  0.68560000  1
  H  H547  1  0.69240000  0.01980000  0.70270000  1
  H  H548  1  0.83360000  0.23790000  0.52660000  1
  H  H549  1  0.64670000  0.24640000  0.69520000  1
  H  H550  1  0.57640000  0.84320000  0.88150000  1
  H  H551  1  0.49890000  0.83500000  0.97030000  1
  H  H552  1  0.39390000  0.66610000  0.09690000  1
  H  H553  1  0.35850000  0.59530000  0.13920000  1
  H  H554  1  0.27100000  0.59900000  0.21570000  1
  H  H555  1  0.22700000  0.66510000  0.25920000  1
  H  H556  1  0.09800000  0.69570000  0.36780000  1
  H  H557  1  0.00780000  0.70320000  0.44400000  1
  H  H558  1  0.90817000  0.27324000  0.45051000  1
  H  H559  1  0.56737000  0.28634000  0.76629000  1
  H  H560  1  0.00990000  0.57210000  0.57460000  1
  H  H561  1  0.10260000  0.50280000  0.56080000  1
  H  H562  1  0.11460000  0.52060000  0.68560000  1
  H  H563  1  0.01980000  0.58510000  0.70270000  1
  H  H564  1  0.23790000  0.40190000  0.52660000  1
  H  H565  1  0.24640000  0.41170000  0.69520000  1
  H  H566  1  0.84320000  0.69890000  0.88150000  1
  H  H567  1  0.83500000  0.69580000  0.97030000  1
  H  H568  1  0.66610000  0.84310000  0.09690000  1
  H  H569  1  0.59530000  0.90700000  0.13920000  1
  H  H570  1  0.59900000  0.91430000  0.21570000  1
  H  H571  1  0.66510000  0.84870000  0.25920000  1
  H  H572  1  0.69570000  0.83850000  0.36780000  1
  H  H573  1  0.70320000  0.84500000  0.44400000  1
  H  H574  1  0.27324000  0.36808000  0.45051000  1
  H  H575  1  0.28634000  0.38000000  0.76629000  1
  O  O576  1  0.92357000  0.73930000  0.69061000  1
  O  O577  1  0.92225000  0.82072000  0.61105000  1
  O  O578  1  0.82092000  0.92217000  0.51786000  1
  O  O579  1  0.82346000  0.64556000  0.79198000  1
  O  O580  1  0.81724000  0.67650000  0.68902000  1
  O  O581  1  0.86095000  0.75587000  0.62731000  1
  O  O582  1  0.75590778  0.75590444  0.73228000  1
  O  O583  1  0.81713778  0.81713444  0.54859000  1
  O  O584  1  0.73930000  0.64652000  0.69061000  1
  O  O585  1  0.82072000  0.64598000  0.61105000  1
  O  O586  1  0.92217000  0.73905000  0.51786000  1
  O  O587  1  0.64556000  0.73900000  0.79198000  1
  O  O588  1  0.67650000  0.81724000  0.68902000  1
  O  O589  1  0.75587000  0.75587000  0.62731000  1
  O  O590  1  0.64652000  0.92357000  0.69061000  1
  O  O591  1  0.64598000  0.92225000  0.61105000  1
  O  O592  1  0.73905000  0.82092000  0.51786000  1
  O  O593  1  0.73900000  0.82346000  0.79198000  1
  O  O594  1  0.81724000  0.81724000  0.68902000  1
  O  O595  1  0.75587000  0.86095000  0.62731000  1
  O  O596  1  0.35348000  0.26070000  0.30939000  1
  O  O597  1  0.35402000  0.17928000  0.38895000  1
  O  O598  1  0.26095000  0.07783000  0.48214000  1
  O  O599  1  0.26100000  0.35444000  0.20802000  1
  O  O600  1  0.18276000  0.32350000  0.31098000  1
  O  O601  1  0.24413000  0.24413000  0.37269000  1
  O  O602  1  0.24409222  0.24409556  0.26772000  1
  O  O603  1  0.18286222  0.18286556  0.45141000  1
  O  O604  1  0.26070000  0.07643000  0.30939000  1
  O  O605  1  0.17928000  0.07775000  0.38895000  1
  O  O606  1  0.07783000  0.17908000  0.48214000  1
  O  O607  1  0.35444000  0.17654000  0.20802000  1
  O  O608  1  0.32350000  0.18276000  0.31098000  1
  O  O609  1  0.24413000  0.13905000  0.37269000  1
  O  O610  1  0.07643000  0.35348000  0.30939000  1
  O  O611  1  0.07775000  0.35402000  0.38895000  1
  O  O612  1  0.17908000  0.26095000  0.48214000  1
  O  O613  1  0.17654000  0.26100000  0.20802000  1
  O  O614  1  0.18276000  0.18276000  0.31098000  1
  O  O615  1  0.13905000  0.24413000  0.37269000  1
  O  O616  1  0.07643000  0.26070000  0.30939000  1
  O  O617  1  0.07775000  0.17928000  0.38895000  1
  O  O618  1  0.17908000  0.07783000  0.48214000  1
  O  O619  1  0.17654000  0.35444000  0.20802000  1
  O  O620  1  0.26070000  0.35348000  0.30939000  1
  O  O621  1  0.17928000  0.35402000  0.38895000  1
  O  O622  1  0.07783000  0.26095000  0.48214000  1
  O  O623  1  0.35444000  0.26100000  0.20802000  1
  O  O624  1  0.35348000  0.07643000  0.30939000  1
  O  O625  1  0.35402000  0.07775000  0.38895000  1
  O  O626  1  0.26095000  0.17908000  0.48214000  1
  O  O627  1  0.26100000  0.17654000  0.20802000  1
  O  O628  1  0.64652000  0.73930000  0.69061000  1
  O  O629  1  0.64598000  0.82072000  0.61105000  1
  O  O630  1  0.73905000  0.92217000  0.51786000  1
  O  O631  1  0.73900000  0.64556000  0.79198000  1
  O  O632  1  0.73930000  0.92357000  0.69061000  1
  O  O633  1  0.82072000  0.92225000  0.61105000  1
  O  O634  1  0.92217000  0.82092000  0.51786000  1
  O  O635  1  0.64556000  0.82346000  0.79198000  1
  O  O636  1  0.92357000  0.64652000  0.69061000  1
  O  O637  1  0.92225000  0.64598000  0.61105000  1
  O  O638  1  0.82092000  0.73905000  0.51786000  1
  O  O639  1  0.82346000  0.73900000  0.79198000  1
  Zr  Zr640  1  0.84431000  0.71983000  0.59155000  1
  Zr  Zr641  1  0.84477000  0.72019000  0.71485000  1
  Zr  Zr642  1  0.71983000  0.84431000  0.59155000  1
  Zr  Zr643  1  0.72019000  0.72019000  0.71485000  1
  Zr  Zr644  1  0.84431000  0.84431000  0.59155000  1
  Zr  Zr645  1  0.72019000  0.84477000  0.71485000  1
  Zr  Zr646  1  0.15569000  0.28017000  0.40845000  1
  Zr  Zr647  1  0.27981000  0.27981000  0.28515000  1
  Zr  Zr648  1  0.28017000  0.15569000  0.40845000  1
  Zr  Zr649  1  0.27981000  0.15523000  0.28515000  1
  Zr  Zr650  1  0.15569000  0.15569000  0.40845000  1
  Zr  Zr651  1  0.15523000  0.27981000  0.28515000  1
