# generated using pymatgen
data_ZrH7C15O8
_symmetry_space_group_name_H-M   'P 1'
_cell_length_a   19.67700000
_cell_length_b   19.67700000
_cell_length_c   21.50499237
_cell_angle_alpha   62.77419754
_cell_angle_beta   62.77419754
_cell_angle_gamma   60.00000000
_symmetry_Int_Tables_number   1
_chemical_formula_structural   ZrH7C15O8
_chemical_formula_sum   'Zr12 H84 C180 O96'
_cell_volume   6122.56380739
_cell_formula_units_Z   12
loop_
 _symmetry_equiv_pos_site_id
 _symmetry_equiv_pos_as_xyz
  1  'x, y, z'
loop_
 _atom_site_type_symbol
 _atom_site_label
 _atom_site_symmetry_multiplicity
 _atom_site_fract_x
 _atom_site_fract_y
 _atom_site_fract_z
 _atom_site_occupancy
  C  C0  1  0.16636000  0.18316000  0.10332000  1
  C  C1  1  0.10189000  0.18239000  0.17553000  1
  C  C2  1  0.01902000  0.21262000  0.18024000  1
  C  C3  1  0.95911000  0.21401000  0.24777000  1
  C  C4  1  0.98182000  0.17952000  0.31134000  1
  C  C5  1  0.06406000  0.14916000  0.30672000  1
  C  C6  1  0.12493000  0.15173000  0.23811000  1
  C  C7  1  0.32530000  0.31790000  0.40780000  1
  C  C8  1  0.36197000  0.36177000  0.33319000  1
  C  C9  1  0.36614000  0.34554000  0.27358000  1
  C  C10  1  0.40268000  0.38348000  0.20356000  1
  C  C11  1  0.43545000  0.43375000  0.19195000  1
  C  C12  1  0.43515000  0.45225000  0.24895000  1
  C  C13  1  0.39606000  0.41506000  0.32152000  1
  C  C14  1  0.24111000  0.21957000  0.83332000  1
  C  C15  1  0.28572000  0.26904000  0.77944000  1
  C  C16  1  0.29972000  0.28519000  0.70504000  1
  C  C17  1  0.27252000  0.25071000  0.68110000  1
  C  C18  1  0.23229000  0.19593000  0.73567000  1
  C  C19  1  0.21583000  0.18216000  0.81082000  1
  C  C20  1  0.32338000  0.30328000  0.79786000  1
  C  C21  1  0.21004000  0.14784000  0.71698000  1
  C  C22  1  0.42118000  0.05123000  0.98920000  1
  C  C23  1  0.45383000  0.96706000  0.99739000  1
  C  C24  1  0.53095000  0.91570000  0.00762000  1
  C  C25  1  0.56029000  0.82751000  0.01530000  1
  C  C26  1  0.44775000  0.07684000  0.51370000  1
  C  C27  1  0.53281000  0.04913000  0.49822000  1
  C  C28  1  0.41505000  0.02695000  0.51430000  1
  C  C29  1  0.32485000  0.05335000  0.52819000  1
  C  C30  1  0.18316000  0.54716000  0.10332000  1
  C  C31  1  0.18239000  0.54019000  0.17553000  1
  C  C32  1  0.21262000  0.58812000  0.18024000  1
  C  C33  1  0.21401000  0.57911000  0.24777000  1
  C  C34  1  0.17952000  0.52732000  0.31134000  1
  C  C35  1  0.14916000  0.48006000  0.30672000  1
  C  C36  1  0.15173000  0.48523000  0.23811000  1
  C  C37  1  0.31790000  0.94900000  0.40780000  1
  C  C38  1  0.36177000  0.94307000  0.33319000  1
  C  C39  1  0.34554000  0.01474000  0.27358000  1
  C  C40  1  0.38348000  0.01028000  0.20356000  1
  C  C41  1  0.43375000  0.93885000  0.19195000  1
  C  C42  1  0.45225000  0.86365000  0.24895000  1
  C  C43  1  0.41506000  0.86736000  0.32152000  1
  C  C44  1  0.21957000  0.70600000  0.83332000  1
  C  C45  1  0.26904000  0.66580000  0.77944000  1
  C  C46  1  0.28519000  0.71005000  0.70504000  1
  C  C47  1  0.25071000  0.79567000  0.68110000  1
  C  C48  1  0.19593000  0.83611000  0.73567000  1
  C  C49  1  0.18216000  0.79119000  0.81082000  1
  C  C50  1  0.30328000  0.57548000  0.79786000  1
  C  C51  1  0.14784000  0.92514000  0.71698000  1
  C  C52  1  0.05123000  0.53839000  0.98920000  1
  C  C53  1  0.96706000  0.58172000  0.99739000  1
  C  C54  1  0.91570000  0.54573000  0.00762000  1
  C  C55  1  0.82751000  0.59690000  0.01530000  1
  C  C56  1  0.07684000  0.96171000  0.51370000  1
  C  C57  1  0.04913000  0.91984000  0.49822000  1
  C  C58  1  0.02695000  0.04370000  0.51430000  1
  C  C59  1  0.05335000  0.09361000  0.52819000  1
  C  C60  1  0.54716000  0.16636000  0.10332000  1
  C  C61  1  0.54019000  0.10189000  0.17553000  1
  C  C62  1  0.58812000  0.01902000  0.18024000  1
  C  C63  1  0.57911000  0.95911000  0.24777000  1
  C  C64  1  0.52732000  0.98182000  0.31134000  1
  C  C65  1  0.48006000  0.06406000  0.30672000  1
  C  C66  1  0.48523000  0.12493000  0.23811000  1
  C  C67  1  0.94900000  0.32530000  0.40780000  1
  C  C68  1  0.94307000  0.36197000  0.33319000  1
  C  C69  1  0.01474000  0.36614000  0.27358000  1
  C  C70  1  0.01028000  0.40268000  0.20356000  1
  C  C71  1  0.93885000  0.43545000  0.19195000  1
  C  C72  1  0.86365000  0.43515000  0.24895000  1
  C  C73  1  0.86736000  0.39606000  0.32152000  1
  C  C74  1  0.70600000  0.24111000  0.83332000  1
  C  C75  1  0.66580000  0.28572000  0.77944000  1
  C  C76  1  0.71005000  0.29972000  0.70504000  1
  C  C77  1  0.79567000  0.27252000  0.68110000  1
  C  C78  1  0.83611000  0.23229000  0.73567000  1
  C  C79  1  0.79119000  0.21583000  0.81082000  1
  C  C80  1  0.57548000  0.32338000  0.79786000  1
  C  C81  1  0.92514000  0.21004000  0.71698000  1
  C  C82  1  0.53839000  0.42118000  0.98920000  1
  C  C83  1  0.58172000  0.45383000  0.99739000  1
  C  C84  1  0.54573000  0.53095000  0.00762000  1
  C  C85  1  0.59690000  0.56029000  0.01530000  1
  C  C86  1  0.96171000  0.44775000  0.51370000  1
  C  C87  1  0.91984000  0.53281000  0.49822000  1
  C  C88  1  0.04370000  0.41505000  0.51430000  1
  C  C89  1  0.09361000  0.32485000  0.52819000  1
  C  C90  1  0.83364000  0.81684000  0.89668000  1
  C  C91  1  0.89811000  0.81761000  0.82447000  1
  C  C92  1  0.98098000  0.78738000  0.81976000  1
  C  C93  1  0.04089000  0.78599000  0.75223000  1
  C  C94  1  0.01818000  0.82048000  0.68866000  1
  C  C95  1  0.93594000  0.85084000  0.69328000  1
  C  C96  1  0.87507000  0.84827000  0.76189000  1
  C  C97  1  0.67470000  0.68210000  0.59220000  1
  C  C98  1  0.63803000  0.63823000  0.66681000  1
  C  C99  1  0.63386000  0.65446000  0.72642000  1
  C  C100  1  0.59732000  0.61652000  0.79644000  1
  C  C101  1  0.56455000  0.56625000  0.80805000  1
  C  C102  1  0.56485000  0.54775000  0.75105000  1
  C  C103  1  0.60394000  0.58494000  0.67848000  1
  C  C104  1  0.75889000  0.78043000  0.16668000  1
  C  C105  1  0.71428000  0.73096000  0.22056000  1
  C  C106  1  0.70028000  0.71481000  0.29496000  1
  C  C107  1  0.72748000  0.74929000  0.31890000  1
  C  C108  1  0.76771000  0.80407000  0.26433000  1
  C  C109  1  0.78417000  0.81784000  0.18918000  1
  C  C110  1  0.67662000  0.69672000  0.20214000  1
  C  C111  1  0.78996000  0.85216000  0.28302000  1
  C  C112  1  0.57882000  0.94877000  0.01080000  1
  C  C113  1  0.54617000  0.03294000  0.00261000  1
  C  C114  1  0.46905000  0.08430000  0.99238000  1
  C  C115  1  0.43971000  0.17249000  0.98470000  1
  C  C116  1  0.55225000  0.92316000  0.48630000  1
  C  C117  1  0.46719000  0.95087000  0.50178000  1
  C  C118  1  0.58495000  0.97305000  0.48570000  1
  C  C119  1  0.67515000  0.94665000  0.47181000  1
  C  C120  1  0.81684000  0.45284000  0.89668000  1
  C  C121  1  0.81761000  0.45981000  0.82447000  1
  C  C122  1  0.78738000  0.41188000  0.81976000  1
  C  C123  1  0.78599000  0.42089000  0.75223000  1
  C  C124  1  0.82048000  0.47268000  0.68866000  1
  C  C125  1  0.85084000  0.51994000  0.69328000  1
  C  C126  1  0.84827000  0.51477000  0.76189000  1
  C  C127  1  0.68210000  0.05100000  0.59220000  1
  C  C128  1  0.63823000  0.05693000  0.66681000  1
  C  C129  1  0.65446000  0.98526000  0.72642000  1
  C  C130  1  0.61652000  0.98972000  0.79644000  1
  C  C131  1  0.56625000  0.06115000  0.80805000  1
  C  C132  1  0.54775000  0.13635000  0.75105000  1
  C  C133  1  0.58494000  0.13264000  0.67848000  1
  C  C134  1  0.78043000  0.29400000  0.16668000  1
  C  C135  1  0.73096000  0.33420000  0.22056000  1
  C  C136  1  0.71481000  0.28995000  0.29496000  1
  C  C137  1  0.74929000  0.20433000  0.31890000  1
  C  C138  1  0.80407000  0.16389000  0.26433000  1
  C  C139  1  0.81784000  0.20881000  0.18918000  1
  C  C140  1  0.69672000  0.42452000  0.20214000  1
  C  C141  1  0.85216000  0.07486000  0.28302000  1
  C  C142  1  0.94877000  0.46161000  0.01080000  1
  C  C143  1  0.03294000  0.41828000  0.00261000  1
  C  C144  1  0.08430000  0.45427000  0.99238000  1
  C  C145  1  0.17249000  0.40310000  0.98470000  1
  C  C146  1  0.92316000  0.03829000  0.48630000  1
  C  C147  1  0.95087000  0.08016000  0.50178000  1
  C  C148  1  0.97305000  0.95630000  0.48570000  1
  C  C149  1  0.94665000  0.90639000  0.47181000  1
  C  C150  1  0.45284000  0.83364000  0.89668000  1
  C  C151  1  0.45981000  0.89811000  0.82447000  1
  C  C152  1  0.41188000  0.98098000  0.81976000  1
  C  C153  1  0.42089000  0.04089000  0.75223000  1
  C  C154  1  0.47268000  0.01818000  0.68866000  1
  C  C155  1  0.51994000  0.93594000  0.69328000  1
  C  C156  1  0.51477000  0.87507000  0.76189000  1
  C  C157  1  0.05100000  0.67470000  0.59220000  1
  C  C158  1  0.05693000  0.63803000  0.66681000  1
  C  C159  1  0.98526000  0.63386000  0.72642000  1
  C  C160  1  0.98972000  0.59732000  0.79644000  1
  C  C161  1  0.06115000  0.56455000  0.80805000  1
  C  C162  1  0.13635000  0.56485000  0.75105000  1
  C  C163  1  0.13264000  0.60394000  0.67848000  1
  C  C164  1  0.29400000  0.75889000  0.16668000  1
  C  C165  1  0.33420000  0.71428000  0.22056000  1
  C  C166  1  0.28995000  0.70028000  0.29496000  1
  C  C167  1  0.20433000  0.72748000  0.31890000  1
  C  C168  1  0.16389000  0.76771000  0.26433000  1
  C  C169  1  0.20881000  0.78417000  0.18918000  1
  C  C170  1  0.42452000  0.67662000  0.20214000  1
  C  C171  1  0.07486000  0.78996000  0.28302000  1
  C  C172  1  0.46161000  0.57882000  0.01080000  1
  C  C173  1  0.41828000  0.54617000  0.00261000  1
  C  C174  1  0.45427000  0.46905000  0.99238000  1
  C  C175  1  0.40310000  0.43971000  0.98470000  1
  C  C176  1  0.03829000  0.55225000  0.48630000  1
  C  C177  1  0.08016000  0.46719000  0.50178000  1
  C  C178  1  0.95630000  0.58495000  0.48570000  1
  C  C179  1  0.90639000  0.67515000  0.47181000  1
  H  H180  1  0.00360000  0.23220000  0.13740000  1
  H  H181  1  0.90260000  0.23840000  0.25050000  1
  H  H182  1  0.94120000  0.17690000  0.35760000  1
  H  H183  1  0.07950000  0.12640000  0.35010000  1
  H  H184  1  0.18090000  0.13270000  0.23490000  1
  H  H185  1  0.34330000  0.30820000  0.28240000  1
  H  H186  1  0.40430000  0.37360000  0.16360000  1
  H  H187  1  0.46090000  0.45910000  0.14290000  1
  H  H188  1  0.46040000  0.48830000  0.23830000  1
  H  H189  1  0.39320000  0.42620000  0.36130000  1
  H  H190  1  0.32860000  0.32070000  0.66970000  1
  H  H191  1  0.18710000  0.14680000  0.84640000  1
  H  H192  1  0.42230000  0.94410000  0.99580000  1
  H  H193  1  0.55570000  0.08290000  0.49630000  1
  H  H194  1  0.23220000  0.62680000  0.13740000  1
  H  H195  1  0.23840000  0.60850000  0.25050000  1
  H  H196  1  0.17690000  0.52430000  0.35760000  1
  H  H197  1  0.12640000  0.44400000  0.35010000  1
  H  H198  1  0.13270000  0.45150000  0.23490000  1
  H  H199  1  0.30820000  0.06610000  0.28240000  1
  H  H200  1  0.37360000  0.05850000  0.16360000  1
  H  H201  1  0.45910000  0.93710000  0.14290000  1
  H  H202  1  0.48830000  0.81300000  0.23830000  1
  H  H203  1  0.42620000  0.81930000  0.36130000  1
  H  H204  1  0.32070000  0.68100000  0.66970000  1
  H  H205  1  0.14680000  0.81970000  0.84640000  1
  H  H206  1  0.94410000  0.63780000  0.99580000  1
  H  H207  1  0.08290000  0.86510000  0.49630000  1
  H  H208  1  0.62680000  0.00360000  0.13740000  1
  H  H209  1  0.60850000  0.90260000  0.25050000  1
  H  H210  1  0.52430000  0.94120000  0.35760000  1
  H  H211  1  0.44400000  0.07950000  0.35010000  1
  H  H212  1  0.45150000  0.18090000  0.23490000  1
  H  H213  1  0.06610000  0.34330000  0.28240000  1
  H  H214  1  0.05850000  0.40430000  0.16360000  1
  H  H215  1  0.93710000  0.46090000  0.14290000  1
  H  H216  1  0.81300000  0.46040000  0.23830000  1
  H  H217  1  0.81930000  0.39320000  0.36130000  1
  H  H218  1  0.68100000  0.32860000  0.66970000  1
  H  H219  1  0.81970000  0.18710000  0.84640000  1
  H  H220  1  0.63780000  0.42230000  0.99580000  1
  H  H221  1  0.86510000  0.55570000  0.49630000  1
  H  H222  1  0.99640000  0.76780000  0.86260000  1
  H  H223  1  0.09740000  0.76160000  0.74950000  1
  H  H224  1  0.05880000  0.82310000  0.64240000  1
  H  H225  1  0.92050000  0.87360000  0.64990000  1
  H  H226  1  0.81910000  0.86730000  0.76510000  1
  H  H227  1  0.65670000  0.69180000  0.71760000  1
  H  H228  1  0.59570000  0.62640000  0.83640000  1
  H  H229  1  0.53910000  0.54090000  0.85710000  1
  H  H230  1  0.53960000  0.51170000  0.76170000  1
  H  H231  1  0.60680000  0.57380000  0.63870000  1
  H  H232  1  0.67140000  0.67930000  0.33030000  1
  H  H233  1  0.81290000  0.85320000  0.15360000  1
  H  H234  1  0.57770000  0.05590000  0.00420000  1
  H  H235  1  0.44430000  0.91710000  0.50370000  1
  H  H236  1  0.76780000  0.37320000  0.86260000  1
  H  H237  1  0.76160000  0.39150000  0.74950000  1
  H  H238  1  0.82310000  0.47570000  0.64240000  1
  H  H239  1  0.87360000  0.55600000  0.64990000  1
  H  H240  1  0.86730000  0.54850000  0.76510000  1
  H  H241  1  0.69180000  0.93390000  0.71760000  1
  H  H242  1  0.62640000  0.94150000  0.83640000  1
  H  H243  1  0.54090000  0.06290000  0.85710000  1
  H  H244  1  0.51170000  0.18700000  0.76170000  1
  H  H245  1  0.57380000  0.18070000  0.63870000  1
  H  H246  1  0.67930000  0.31900000  0.33030000  1
  H  H247  1  0.85320000  0.18030000  0.15360000  1
  H  H248  1  0.05590000  0.36220000  0.00420000  1
  H  H249  1  0.91710000  0.13490000  0.50370000  1
  H  H250  1  0.37320000  0.99640000  0.86260000  1
  H  H251  1  0.39150000  0.09740000  0.74950000  1
  H  H252  1  0.47570000  0.05880000  0.64240000  1
  H  H253  1  0.55600000  0.92050000  0.64990000  1
  H  H254  1  0.54850000  0.81910000  0.76510000  1
  H  H255  1  0.93390000  0.65670000  0.71760000  1
  H  H256  1  0.94150000  0.59570000  0.83640000  1
  H  H257  1  0.06290000  0.53910000  0.85710000  1
  H  H258  1  0.18700000  0.53960000  0.76170000  1
  H  H259  1  0.18070000  0.60680000  0.63870000  1
  H  H260  1  0.31900000  0.67140000  0.33030000  1
  H  H261  1  0.18030000  0.81290000  0.15360000  1
  H  H262  1  0.36220000  0.57770000  0.00420000  1
  H  H263  1  0.13490000  0.44430000  0.50370000  1
  O  O264  1  0.23729000  0.17833000  0.09375000  1
  O  O265  1  0.15071000  0.19228000  0.04764000  1
  O  O266  1  0.30527000  0.26097000  0.41929000  1
  O  O267  1  0.31862000  0.33263000  0.46264000  1
  O  O268  1  0.22082000  0.20782000  0.90475000  1
  O  O269  1  0.32845000  0.27207000  0.86413000  1
  O  O270  1  0.34837000  0.35946000  0.75199000  1
  O  O271  1  0.28594000  0.27052000  0.60880000  1
  O  O272  1  0.23315000  0.15294000  0.64822000  1
  O  O273  1  0.17136000  0.10306000  0.76432000  1
  O  O274  1  0.34818000  0.09704000  0.97681000  1
  O  O275  1  0.51031000  0.80164000  0.02043000  1
  O  O276  1  0.63236000  0.77996000  0.01755000  1
  O  O277  1  0.40067000  0.14848000  0.52861000  1
  O  O278  1  0.29899000  0.00080000  0.53899000  1
  O  O279  1  0.27733000  0.12610000  0.52666000  1
  O  O280  1  0.17833000  0.49063000  0.09375000  1
  O  O281  1  0.19228000  0.60937000  0.04764000  1
  O  O282  1  0.26097000  0.01447000  0.41929000  1
  O  O283  1  0.33263000  0.88611000  0.46264000  1
  O  O284  1  0.20782000  0.66661000  0.90475000  1
  O  O285  1  0.27207000  0.53535000  0.86413000  1
  O  O286  1  0.35946000  0.54018000  0.75199000  1
  O  O287  1  0.27052000  0.83474000  0.60880000  1
  O  O288  1  0.15294000  0.96569000  0.64822000  1
  O  O289  1  0.10306000  0.96126000  0.76432000  1
  O  O290  1  0.09704000  0.57797000  0.97681000  1
  O  O291  1  0.80164000  0.66762000  0.02043000  1
  O  O292  1  0.77996000  0.57013000  0.01755000  1
  O  O293  1  0.14848000  0.92224000  0.52861000  1
  O  O294  1  0.00080000  0.16122000  0.53899000  1
  O  O295  1  0.12610000  0.06991000  0.52666000  1
  O  O296  1  0.49063000  0.23729000  0.09375000  1
  O  O297  1  0.60937000  0.15071000  0.04764000  1
  O  O298  1  0.01447000  0.30527000  0.41929000  1
  O  O299  1  0.88611000  0.31862000  0.46264000  1
  O  O300  1  0.66661000  0.22082000  0.90475000  1
  O  O301  1  0.53535000  0.32845000  0.86413000  1
  O  O302  1  0.54018000  0.34837000  0.75199000  1
  O  O303  1  0.83474000  0.28594000  0.60880000  1
  O  O304  1  0.96569000  0.23315000  0.64822000  1
  O  O305  1  0.96126000  0.17136000  0.76432000  1
  O  O306  1  0.57797000  0.34818000  0.97681000  1
  O  O307  1  0.66762000  0.51031000  0.02043000  1
  O  O308  1  0.57013000  0.63236000  0.01755000  1
  O  O309  1  0.92224000  0.40067000  0.52861000  1
  O  O310  1  0.16122000  0.29899000  0.53899000  1
  O  O311  1  0.06991000  0.27733000  0.52666000  1
  O  O312  1  0.76271000  0.82167000  0.90625000  1
  O  O313  1  0.84929000  0.80772000  0.95236000  1
  O  O314  1  0.69473000  0.73903000  0.58071000  1
  O  O315  1  0.68138000  0.66737000  0.53736000  1
  O  O316  1  0.77918000  0.79218000  0.09525000  1
  O  O317  1  0.67155000  0.72793000  0.13587000  1
  O  O318  1  0.65163000  0.64054000  0.24801000  1
  O  O319  1  0.71406000  0.72948000  0.39120000  1
  O  O320  1  0.76685000  0.84706000  0.35178000  1
  O  O321  1  0.82864000  0.89694000  0.23568000  1
  O  O322  1  0.65182000  0.90296000  0.02319000  1
  O  O323  1  0.48969000  0.19836000  0.97957000  1
  O  O324  1  0.36764000  0.22004000  0.98245000  1
  O  O325  1  0.59933000  0.85152000  0.47139000  1
  O  O326  1  0.70101000  0.99920000  0.46101000  1
  O  O327  1  0.72267000  0.87390000  0.47334000  1
  O  O328  1  0.82167000  0.50937000  0.90625000  1
  O  O329  1  0.80772000  0.39063000  0.95236000  1
  O  O330  1  0.73903000  0.98553000  0.58071000  1
  O  O331  1  0.66737000  0.11389000  0.53736000  1
  O  O332  1  0.79218000  0.33339000  0.09525000  1
  O  O333  1  0.72793000  0.46465000  0.13587000  1
  O  O334  1  0.64054000  0.45982000  0.24801000  1
  O  O335  1  0.72948000  0.16526000  0.39120000  1
  O  O336  1  0.84706000  0.03431000  0.35178000  1
  O  O337  1  0.89694000  0.03874000  0.23568000  1
  O  O338  1  0.90296000  0.42203000  0.02319000  1
  O  O339  1  0.19836000  0.33238000  0.97957000  1
  O  O340  1  0.22004000  0.42987000  0.98245000  1
  O  O341  1  0.85152000  0.07776000  0.47139000  1
  O  O342  1  0.99920000  0.83878000  0.46101000  1
  O  O343  1  0.87390000  0.93009000  0.47334000  1
  O  O344  1  0.50937000  0.76271000  0.90625000  1
  O  O345  1  0.39063000  0.84929000  0.95236000  1
  O  O346  1  0.98553000  0.69473000  0.58071000  1
  O  O347  1  0.11389000  0.68138000  0.53736000  1
  O  O348  1  0.33339000  0.77918000  0.09525000  1
  O  O349  1  0.46465000  0.67155000  0.13587000  1
  O  O350  1  0.45982000  0.65163000  0.24801000  1
  O  O351  1  0.16526000  0.71406000  0.39120000  1
  O  O352  1  0.03431000  0.76685000  0.35178000  1
  O  O353  1  0.03874000  0.82864000  0.23568000  1
  O  O354  1  0.42203000  0.65182000  0.02319000  1
  O  O355  1  0.33238000  0.48969000  0.97957000  1
  O  O356  1  0.42987000  0.36764000  0.98245000  1
  O  O357  1  0.07776000  0.59933000  0.47139000  1
  O  O358  1  0.83878000  0.70101000  0.46101000  1
  O  O359  1  0.93009000  0.72267000  0.47334000  1
  Zr  Zr360  1  0.26754000  0.21264000  0.96862000  1
  Zr  Zr361  1  0.28345000  0.22533000  0.54292000  1
  Zr  Zr362  1  0.21264000  0.55120000  0.96862000  1
  Zr  Zr363  1  0.22533000  0.94830000  0.54292000  1
  Zr  Zr364  1  0.55120000  0.26754000  0.96862000  1
  Zr  Zr365  1  0.94830000  0.28345000  0.54292000  1
  Zr  Zr366  1  0.73246000  0.78736000  0.03138000  1
  Zr  Zr367  1  0.71655000  0.77467000  0.45708000  1
  Zr  Zr368  1  0.78736000  0.44880000  0.03138000  1
  Zr  Zr369  1  0.77467000  0.05170000  0.45708000  1
  Zr  Zr370  1  0.44880000  0.73246000  0.03138000  1
  Zr  Zr371  1  0.05170000  0.71655000  0.45708000  1
