# generated using pymatgen
data_Zr3H23C51O16F15
_symmetry_space_group_name_H-M   'P 1'
_cell_length_a   18.84850000
_cell_length_b   23.09910000
_cell_length_c   23.09910000
_cell_angle_alpha   90.00000000
_cell_angle_beta   90.00000000
_cell_angle_gamma   90.00000000
_symmetry_Int_Tables_number   1
_chemical_formula_structural   Zr3H23C51O16F15
_chemical_formula_sum   'Zr12 H92 C204 O64 F60'
_cell_volume   10056.96437964
_cell_formula_units_Z   4
loop_
 _symmetry_equiv_pos_site_id
 _symmetry_equiv_pos_as_xyz
  1  'x, y, z'
loop_
 _atom_site_type_symbol
 _atom_site_label
 _atom_site_symmetry_multiplicity
 _atom_site_fract_x
 _atom_site_fract_y
 _atom_site_fract_z
 _atom_site_occupancy
  Zr  Zr0  1  1.00000000  0.39200000  0.00000000  1
  Zr  Zr1  1  0.00000000  0.60800000  0.00000000  1
  Zr  Zr2  1  0.50000000  0.00000000  0.39200000  1
  Zr  Zr3  1  0.50000000  0.00000000  0.60800000  1
  Zr  Zr4  1  0.09237000  0.50000000  0.07546000  1
  Zr  Zr5  1  0.09237000  0.50000000  0.92454000  1
  Zr  Zr6  1  0.59237000  0.92454000  0.50000000  1
  Zr  Zr7  1  0.59237000  0.07546000  0.50000000  1
  Zr  Zr8  1  0.90763000  0.50000000  0.07546000  1
  Zr  Zr9  1  0.90763000  0.50000000  0.92454000  1
  Zr  Zr10  1  0.40763000  0.07546000  0.50000000  1
  Zr  Zr11  1  0.40763000  0.92454000  0.50000000  1
  H  H12  1  0.09300000  0.25150000  0.11360000  1
  H  H13  1  0.23520000  0.37340000  0.16210000  1
  H  H14  1  0.95750000  0.36920000  0.45330000  1
  H  H15  1  0.15630000  0.18680000  0.16840000  1
  H  H16  1  0.09300000  0.74850000  0.88640000  1
  H  H17  1  0.23520000  0.62660000  0.83790000  1
  H  H18  1  0.29640000  0.69330000  0.78350000  1
  H  H19  1  0.95750000  0.63080000  0.54670000  1
  H  H20  1  0.59300000  0.88640000  0.25150000  1
  H  H21  1  0.73520000  0.83790000  0.37340000  1
  H  H22  1  0.45750000  0.54670000  0.36920000  1
  H  H23  1  0.65630000  0.83160000  0.18680000  1
  H  H24  1  0.59300000  0.11360000  0.74850000  1
  H  H25  1  0.73520000  0.16210000  0.62660000  1
  H  H26  1  0.45750000  0.45330000  0.63080000  1
  H  H27  1  0.65630000  0.16840000  0.81320000  1
  H  H28  1  0.90700000  0.74850000  0.11360000  1
  H  H29  1  0.76480000  0.62660000  0.16210000  1
  H  H30  1  0.84370000  0.81320000  0.16840000  1
  H  H31  1  0.90700000  0.25150000  0.88640000  1
  H  H32  1  0.76480000  0.37340000  0.83790000  1
  H  H33  1  0.84370000  0.18680000  0.83160000  1
  H  H34  1  0.40700000  0.11360000  0.25150000  1
  H  H35  1  0.26480000  0.16210000  0.37340000  1
  H  H36  1  0.20360000  0.21650000  0.30670000  1
  H  H37  1  0.40700000  0.88640000  0.74850000  1
  H  H38  1  0.26480000  0.83790000  0.62660000  1
  H  H39  1  0.20360000  0.78350000  0.69330000  1
  H  H40  1  0.90700000  0.74850000  0.88640000  1
  H  H41  1  0.76480000  0.62660000  0.83790000  1
  H  H42  1  0.70360000  0.69330000  0.78350000  1
  H  H43  1  0.04250000  0.63080000  0.54670000  1
  H  H44  1  0.67600000  0.53550000  0.08050000  1
  H  H45  1  0.90700000  0.25150000  0.11360000  1
  H  H46  1  0.76480000  0.37340000  0.16210000  1
  H  H47  1  0.04250000  0.36920000  0.45330000  1
  H  H48  1  0.84370000  0.18680000  0.16840000  1
  H  H49  1  0.55150000  0.46460000  0.91950000  1
  H  H50  1  0.67600000  0.46450000  0.91950000  1
  H  H51  1  0.40700000  0.11360000  0.74850000  1
  H  H52  1  0.26480000  0.16210000  0.62660000  1
  H  H53  1  0.20360000  0.21650000  0.69330000  1
  H  H54  1  0.54250000  0.45330000  0.63080000  1
  H  H55  1  0.17600000  0.91950000  0.53550000  1
  H  H56  1  0.40700000  0.88640000  0.25150000  1
  H  H57  1  0.26480000  0.83790000  0.37340000  1
  H  H58  1  0.20360000  0.78350000  0.30670000  1
  H  H59  1  0.54250000  0.54670000  0.36920000  1
  H  H60  1  0.05150000  0.08050000  0.46460000  1
  H  H61  1  0.17600000  0.08050000  0.46450000  1
  H  H62  1  0.09300000  0.25150000  0.88640000  1
  H  H63  1  0.23520000  0.37340000  0.83790000  1
  H  H64  1  0.29640000  0.30670000  0.78350000  1
  H  H65  1  0.44850000  0.46460000  0.08050000  1
  H  H66  1  0.32400000  0.46450000  0.08050000  1
  H  H67  1  0.09300000  0.74850000  0.11360000  1
  H  H68  1  0.23520000  0.62660000  0.16210000  1
  H  H69  1  0.15630000  0.81320000  0.16840000  1
  H  H70  1  0.32400000  0.53550000  0.91950000  1
  H  H71  1  0.59300000  0.88640000  0.74850000  1
  H  H72  1  0.73520000  0.83790000  0.62660000  1
  H  H73  1  0.65630000  0.83160000  0.81320000  1
  H  H74  1  0.82400000  0.08050000  0.53550000  1
  H  H75  1  0.59300000  0.11360000  0.25150000  1
  H  H76  1  0.73520000  0.16210000  0.37340000  1
  H  H77  1  0.65630000  0.16840000  0.18680000  1
  H  H78  1  0.94850000  0.91950000  0.46460000  1
  H  H79  1  0.82400000  0.91950000  0.46450000  1
  H  H80  1  0.10750000  0.50000000  0.36640000  1
  H  H81  1  0.10750000  0.50000000  0.26490000  1
  H  H82  1  0.10750000  0.50000000  0.63360000  1
  H  H83  1  0.10750000  0.50000000  0.73510000  1
  H  H84  1  0.60750000  0.63360000  0.50000000  1
  H  H85  1  0.60750000  0.73510000  0.50000000  1
  H  H86  1  0.60750000  0.36640000  0.50000000  1
  H  H87  1  0.60750000  0.26490000  0.50000000  1
  H  H88  1  0.89250000  0.50000000  0.36640000  1
  H  H89  1  0.89250000  0.50000000  0.26490000  1
  H  H90  1  0.89250000  0.50000000  0.63360000  1
  H  H91  1  0.89250000  0.50000000  0.73510000  1
  H  H92  1  0.39250000  0.36640000  0.50000000  1
  H  H93  1  0.39250000  0.26490000  0.50000000  1
  H  H94  1  0.39250000  0.63360000  0.50000000  1
  H  H95  1  0.39250000  0.73510000  0.50000000  1
  H  H96  1  0.00000000  0.39490000  0.39910000  1
  H  H97  1  1.00000000  0.60510000  0.60090000  1
  H  H98  1  0.50000000  0.60090000  0.39490000  1
  H  H99  1  0.50000000  0.39910000  0.60510000  1
  H  H100  1  0.00000000  0.58630000  0.44870000  1
  H  H101  1  0.00000000  0.41370000  0.55130000  1
  H  H102  1  0.50000000  0.44870000  0.41370000  1
  H  H103  1  0.50000000  0.55130000  0.58630000  1
  C  C104  1  0.23230000  0.23940000  0.19760000  1
  C  C105  1  0.17240000  0.22570000  0.16680000  1
  C  C106  1  0.13410000  0.26360000  0.13400000  1
  C  C107  1  0.15770000  0.32110000  0.13140000  1
  C  C108  1  0.21840000  0.33460000  0.16310000  1
  C  C109  1  0.25530000  0.29520000  0.19560000  1
  C  C110  1  0.11930000  0.36480000  0.09740000  1
  C  C111  1  0.31980000  0.31390000  0.22670000  1
  C  C112  1  0.23230000  0.76060000  0.80240000  1
  C  C113  1  0.17240000  0.77430000  0.83320000  1
  C  C114  1  0.13410000  0.73640000  0.86600000  1
  C  C115  1  0.15770000  0.67890000  0.86860000  1
  C  C116  1  0.21840000  0.66540000  0.83690000  1
  C  C117  1  0.25530000  0.70480000  0.80440000  1
  C  C118  1  0.11930000  0.63520000  0.90260000  1
  C  C119  1  0.14280000  0.83520000  0.83250000  1
  C  C120  1  0.73230000  0.80240000  0.23940000  1
  C  C121  1  0.67240000  0.83320000  0.22570000  1
  C  C122  1  0.63410000  0.86600000  0.26360000  1
  C  C123  1  0.65770000  0.86860000  0.32110000  1
  C  C124  1  0.71840000  0.83690000  0.33460000  1
  C  C125  1  0.75530000  0.80440000  0.29520000  1
  C  C126  1  0.61930000  0.90260000  0.36480000  1
  C  C127  1  0.81980000  0.77330000  0.31390000  1
  C  C128  1  0.73230000  0.19760000  0.76060000  1
  C  C129  1  0.67240000  0.16680000  0.77430000  1
  C  C130  1  0.63410000  0.13400000  0.73640000  1
  C  C131  1  0.65770000  0.13140000  0.67890000  1
  C  C132  1  0.71840000  0.16310000  0.66540000  1
  C  C133  1  0.75530000  0.19560000  0.70480000  1
  C  C134  1  0.61930000  0.09740000  0.63520000  1
  C  C135  1  0.81980000  0.22670000  0.68610000  1
  C  C136  1  0.76770000  0.76060000  0.19760000  1
  C  C137  1  0.82760000  0.77430000  0.16680000  1
  C  C138  1  0.86590000  0.73640000  0.13400000  1
  C  C139  1  0.84230000  0.67890000  0.13140000  1
  C  C140  1  0.78160000  0.66540000  0.16310000  1
  C  C141  1  0.74470000  0.70480000  0.19560000  1
  C  C142  1  0.88070000  0.63520000  0.09740000  1
  C  C143  1  0.68020000  0.68610000  0.22670000  1
  C  C144  1  0.76770000  0.23940000  0.80240000  1
  C  C145  1  0.82760000  0.22570000  0.83320000  1
  C  C146  1  0.86590000  0.26360000  0.86600000  1
  C  C147  1  0.84230000  0.32110000  0.86860000  1
  C  C148  1  0.78160000  0.33460000  0.83690000  1
  C  C149  1  0.74470000  0.29520000  0.80440000  1
  C  C150  1  0.88070000  0.36480000  0.90260000  1
  C  C151  1  0.68020000  0.31390000  0.77330000  1
  C  C152  1  0.26770000  0.19760000  0.23940000  1
  C  C153  1  0.32760000  0.16680000  0.22570000  1
  C  C154  1  0.36590000  0.13400000  0.26360000  1
  C  C155  1  0.34230000  0.13140000  0.32110000  1
  C  C156  1  0.28160000  0.16310000  0.33460000  1
  C  C157  1  0.24470000  0.19560000  0.29520000  1
  C  C158  1  0.38070000  0.09740000  0.36480000  1
  C  C159  1  0.35720000  0.16750000  0.16480000  1
  C  C160  1  0.26770000  0.80240000  0.76060000  1
  C  C161  1  0.32760000  0.83320000  0.77430000  1
  C  C162  1  0.36590000  0.86600000  0.73640000  1
  C  C163  1  0.34230000  0.86860000  0.67890000  1
  C  C164  1  0.28160000  0.83690000  0.66540000  1
  C  C165  1  0.24470000  0.80440000  0.70480000  1
  C  C166  1  0.38070000  0.90260000  0.63520000  1
  C  C167  1  0.35720000  0.83250000  0.83520000  1
  C  C168  1  0.76770000  0.76060000  0.80240000  1
  C  C169  1  0.82760000  0.77430000  0.83320000  1
  C  C170  1  0.86590000  0.73640000  0.86600000  1
  C  C171  1  0.84230000  0.67890000  0.86860000  1
  C  C172  1  0.78160000  0.66540000  0.83690000  1
  C  C173  1  0.74470000  0.70480000  0.80440000  1
  C  C174  1  0.88070000  0.63520000  0.90260000  1
  C  C175  1  0.85720000  0.83520000  0.83250000  1
  C  C176  1  0.57670000  0.52100000  0.04780000  1
  C  C177  1  0.65060000  0.52100000  0.04770000  1
  C  C178  1  0.53840000  0.54410000  0.10070000  1
  C  C179  1  0.76770000  0.23940000  0.19760000  1
  C  C180  1  0.82760000  0.22570000  0.16680000  1
  C  C181  1  0.86590000  0.26360000  0.13400000  1
  C  C182  1  0.84230000  0.32110000  0.13140000  1
  C  C183  1  0.78160000  0.33460000  0.16310000  1
  C  C184  1  0.74470000  0.29520000  0.19560000  1
  C  C185  1  0.88070000  0.36480000  0.09740000  1
  C  C186  1  0.57670000  0.47900000  0.95220000  1
  C  C187  1  0.65060000  0.47900000  0.95230000  1
  C  C188  1  0.68020000  0.31390000  0.22670000  1
  C  C189  1  0.26770000  0.19760000  0.76060000  1
  C  C190  1  0.32760000  0.16680000  0.77430000  1
  C  C191  1  0.36590000  0.13400000  0.73640000  1
  C  C192  1  0.34230000  0.13140000  0.67890000  1
  C  C193  1  0.28160000  0.16310000  0.66540000  1
  C  C194  1  0.24470000  0.19560000  0.70480000  1
  C  C195  1  0.38070000  0.09740000  0.63520000  1
  C  C196  1  0.35720000  0.16750000  0.83520000  1
  C  C197  1  0.07670000  0.95220000  0.52100000  1
  C  C198  1  0.15060000  0.95230000  0.52100000  1
  C  C199  1  0.03840000  0.89930000  0.54410000  1
  C  C200  1  0.26770000  0.80240000  0.23940000  1
  C  C201  1  0.32760000  0.83320000  0.22570000  1
  C  C202  1  0.36590000  0.86600000  0.26360000  1
  C  C203  1  0.34230000  0.86860000  0.32110000  1
  C  C204  1  0.28160000  0.83690000  0.33460000  1
  C  C205  1  0.24470000  0.80440000  0.29520000  1
  C  C206  1  0.38070000  0.90260000  0.36480000  1
  C  C207  1  0.35720000  0.83250000  0.16480000  1
  C  C208  1  0.07670000  0.04780000  0.47900000  1
  C  C209  1  0.15060000  0.04770000  0.47900000  1
  C  C210  1  0.23230000  0.23940000  0.80240000  1
  C  C211  1  0.17240000  0.22570000  0.83320000  1
  C  C212  1  0.13410000  0.26360000  0.86600000  1
  C  C213  1  0.15770000  0.32110000  0.86860000  1
  C  C214  1  0.21840000  0.33460000  0.83690000  1
  C  C215  1  0.25530000  0.29520000  0.80440000  1
  C  C216  1  0.11930000  0.36480000  0.90260000  1
  C  C217  1  0.14280000  0.16480000  0.83250000  1
  C  C218  1  0.42330000  0.47900000  0.04780000  1
  C  C219  1  0.34940000  0.47900000  0.04770000  1
  C  C220  1  0.23230000  0.76060000  0.19760000  1
  C  C221  1  0.17240000  0.77430000  0.16680000  1
  C  C222  1  0.13410000  0.73640000  0.13400000  1
  C  C223  1  0.15770000  0.67890000  0.13140000  1
  C  C224  1  0.21840000  0.66540000  0.16310000  1
  C  C225  1  0.25530000  0.70480000  0.19560000  1
  C  C226  1  0.11930000  0.63520000  0.09740000  1
  C  C227  1  0.42330000  0.52100000  0.95220000  1
  C  C228  1  0.34940000  0.52100000  0.95230000  1
  C  C229  1  0.31980000  0.68610000  0.22670000  1
  C  C230  1  0.46160000  0.54410000  0.89930000  1
  C  C231  1  0.73230000  0.80240000  0.76060000  1
  C  C232  1  0.67240000  0.83320000  0.77430000  1
  C  C233  1  0.63410000  0.86600000  0.73640000  1
  C  C234  1  0.65770000  0.86860000  0.67890000  1
  C  C235  1  0.71840000  0.83690000  0.66540000  1
  C  C236  1  0.75530000  0.80440000  0.70480000  1
  C  C237  1  0.61930000  0.90260000  0.63520000  1
  C  C238  1  0.92330000  0.04780000  0.52100000  1
  C  C239  1  0.84940000  0.04770000  0.52100000  1
  C  C240  1  0.81980000  0.77330000  0.68610000  1
  C  C241  1  0.96160000  0.10070000  0.54410000  1
  C  C242  1  0.73230000  0.19760000  0.23940000  1
  C  C243  1  0.67240000  0.16680000  0.22570000  1
  C  C244  1  0.63410000  0.13400000  0.26360000  1
  C  C245  1  0.65770000  0.13140000  0.32110000  1
  C  C246  1  0.71840000  0.16310000  0.33460000  1
  C  C247  1  0.75530000  0.19560000  0.29520000  1
  C  C248  1  0.61930000  0.09740000  0.36480000  1
  C  C249  1  0.92330000  0.95220000  0.47900000  1
  C  C250  1  0.84940000  0.95230000  0.47900000  1
  C  C251  1  0.81980000  0.22670000  0.31390000  1
  C  C252  1  0.06390000  0.50000000  0.34570000  1
  C  C253  1  0.06380000  0.50000000  0.28540000  1
  C  C254  1  0.06390000  0.50000000  0.65430000  1
  C  C255  1  0.06380000  0.50000000  0.71460000  1
  C  C256  1  0.56390000  0.65430000  0.50000000  1
  C  C257  1  0.56380000  0.71460000  0.50000000  1
  C  C258  1  0.56390000  0.34570000  0.50000000  1
  C  C259  1  0.56380000  0.28540000  0.50000000  1
  C  C260  1  0.93610000  0.50000000  0.34570000  1
  C  C261  1  0.93620000  0.50000000  0.28540000  1
  C  C262  1  0.93610000  0.50000000  0.65430000  1
  C  C263  1  0.93620000  0.50000000  0.71460000  1
  C  C264  1  0.43610000  0.34570000  0.50000000  1
  C  C265  1  0.43620000  0.28540000  0.50000000  1
  C  C266  1  0.43610000  0.65430000  0.50000000  1
  C  C267  1  0.43620000  0.71460000  0.50000000  1
  C  C268  1  0.00000000  0.44940000  0.46917000  1
  C  C269  1  0.00000000  0.39060000  0.44130000  1
  C  C270  1  0.00000000  0.55060000  0.53083000  1
  C  C271  1  0.00000000  0.60940000  0.55870000  1
  C  C272  1  0.50000000  0.53083000  0.44940000  1
  C  C273  1  0.50000000  0.55870000  0.39060000  1
  C  C274  1  0.50000000  0.46917000  0.55060000  1
  C  C275  1  0.50000000  0.44130000  0.60940000  1
  C  C276  1  1.00000000  0.55060000  0.46917000  1
  C  C277  1  0.00000000  0.44940000  0.53083000  1
  C  C278  1  0.50000000  0.46917000  0.44940000  1
  C  C279  1  0.50000000  0.53083000  0.55060000  1
  C  C280  1  0.00000000  0.50000000  0.43960000  1
  C  C281  1  1.00000000  0.50000000  0.37550000  1
  C  C282  1  0.00000000  0.50000000  0.25530000  1
  C  C283  1  1.00000000  0.50000000  0.19040000  1
  C  C284  1  0.00000000  0.50000000  0.56040000  1
  C  C285  1  1.00000000  0.50000000  0.62450000  1
  C  C286  1  0.00000000  0.50000000  0.74470000  1
  C  C287  1  0.00000000  0.50000000  0.80960000  1
  C  C288  1  0.50000000  0.56040000  0.50000000  1
  C  C289  1  0.50000000  0.62450000  0.50000000  1
  C  C290  1  0.50000000  0.74470000  0.50000000  1
  C  C291  1  0.50000000  0.80960000  0.50000000  1
  C  C292  1  0.50000000  0.43960000  0.50000000  1
  C  C293  1  0.50000000  0.37550000  0.50000000  1
  C  C294  1  0.50000000  0.25530000  0.50000000  1
  C  C295  1  0.50000000  0.19040000  0.50000000  1
  C  C296  1  0.46020000  0.50000000  0.00000000  1
  C  C297  1  0.31210000  0.50000000  0.00000000  1
  C  C298  1  0.23270000  0.50000000  0.00000000  1
  C  C299  1  0.96020000  0.00000000  0.50000000  1
  C  C300  1  0.81210000  0.00000000  0.50000000  1
  C  C301  1  0.73270000  0.00000000  0.50000000  1
  C  C302  1  0.53980000  0.50000000  0.00000000  1
  C  C303  1  0.68790000  0.50000000  0.00000000  1
  C  C304  1  0.76730000  0.50000000  0.00000000  1
  C  C305  1  0.03980000  0.00000000  0.50000000  1
  C  C306  1  0.18790000  0.00000000  0.50000000  1
  C  C307  1  0.26730000  0.00000000  0.50000000  1
  O  O308  1  0.07210000  0.34340000  0.05920000  1
  O  O309  1  0.13540000  0.41800000  0.11090000  1
  O  O310  1  0.07210000  0.65660000  0.94080000  1
  O  O311  1  0.13540000  0.58200000  0.88910000  1
  O  O312  1  0.57210000  0.94080000  0.34340000  1
  O  O313  1  0.63540000  0.88910000  0.41800000  1
  O  O314  1  0.57210000  0.05920000  0.65660000  1
  O  O315  1  0.63540000  0.11090000  0.58200000  1
  O  O316  1  0.92790000  0.65660000  0.05920000  1
  O  O317  1  0.86460000  0.58200000  0.11090000  1
  O  O318  1  0.92790000  0.34340000  0.94080000  1
  O  O319  1  0.86460000  0.41800000  0.88910000  1
  O  O320  1  0.42790000  0.05920000  0.34340000  1
  O  O321  1  0.36460000  0.11090000  0.41800000  1
  O  O322  1  0.42790000  0.94080000  0.65660000  1
  O  O323  1  0.36460000  0.88910000  0.58200000  1
  O  O324  1  0.92790000  0.65660000  0.94080000  1
  O  O325  1  0.86460000  0.58200000  0.88910000  1
  O  O326  1  0.92790000  0.34340000  0.05920000  1
  O  O327  1  0.86460000  0.41800000  0.11090000  1
  O  O328  1  0.42790000  0.05920000  0.65660000  1
  O  O329  1  0.36460000  0.11090000  0.58200000  1
  O  O330  1  0.42790000  0.94080000  0.34340000  1
  O  O331  1  0.36460000  0.88910000  0.41800000  1
  O  O332  1  0.07210000  0.34340000  0.94080000  1
  O  O333  1  0.13540000  0.41800000  0.88910000  1
  O  O334  1  0.07210000  0.65660000  0.05920000  1
  O  O335  1  0.13540000  0.58200000  0.11090000  1
  O  O336  1  0.57210000  0.94080000  0.65660000  1
  O  O337  1  0.63540000  0.88910000  0.58200000  1
  O  O338  1  0.57210000  0.05920000  0.34340000  1
  O  O339  1  0.63540000  0.11090000  0.41800000  1
  O  O340  1  0.05790000  0.50000000  0.16790000  1
  O  O341  1  0.20530000  0.50000000  0.05130000  1
  O  O342  1  0.05790000  0.50000000  0.83210000  1
  O  O343  1  0.20530000  0.50000000  0.94870000  1
  O  O344  1  0.55790000  0.83210000  0.50000000  1
  O  O345  1  0.70530000  0.94870000  0.50000000  1
  O  O346  1  0.55790000  0.16790000  0.50000000  1
  O  O347  1  0.70530000  0.05130000  0.50000000  1
  O  O348  1  0.94210000  0.50000000  0.16790000  1
  O  O349  1  0.79470000  0.50000000  0.05130000  1
  O  O350  1  0.94210000  0.50000000  0.83210000  1
  O  O351  1  0.79470000  0.50000000  0.94870000  1
  O  O352  1  0.44210000  0.16790000  0.50000000  1
  O  O353  1  0.29470000  0.05130000  0.50000000  1
  O  O354  1  0.44210000  0.83210000  0.50000000  1
  O  O355  1  0.29470000  0.94870000  0.50000000  1
  O  O356  1  0.00000000  0.44620000  0.07520000  1
  O  O357  1  0.00000000  0.55380000  0.92480000  1
  O  O358  1  0.50000000  0.92480000  0.44620000  1
  O  O359  1  0.50000000  0.07520000  0.55380000  1
  O  O360  1  1.00000000  0.55380000  0.07520000  1
  O  O361  1  1.00000000  0.44620000  0.92480000  1
  O  O362  1  0.50000000  0.07520000  0.44620000  1
  O  O363  1  0.50000000  0.92480000  0.55380000  1
  O  O364  1  0.09120000  0.44680000  0.00000000  1
  O  O365  1  0.09120000  0.55320000  0.00000000  1
  O  O366  1  0.59120000  0.00000000  0.44680000  1
  O  O367  1  0.59120000  0.00000000  0.55320000  1
  O  O368  1  0.90880000  0.55320000  0.00000000  1
  O  O369  1  0.90880000  0.44680000  0.00000000  1
  O  O370  1  0.40880000  0.00000000  0.44680000  1
  O  O371  1  0.40880000  0.00000000  0.55320000  1
  F  F372  1  0.32240000  0.33140000  0.28100000  1
  F  F373  1  0.37480000  0.27720000  0.23370000  1
  F  F374  1  0.36240000  0.35580000  0.20670000  1
  F  F375  1  0.18910000  0.87870000  0.84070000  1
  F  F376  1  0.11320000  0.84960000  0.77970000  1
  F  F377  1  0.08910000  0.84700000  0.87020000  1
  F  F378  1  0.82240000  0.71900000  0.33140000  1
  F  F379  1  0.87480000  0.76630000  0.27720000  1
  F  F380  1  0.86240000  0.79330000  0.35580000  1
  F  F381  1  0.82240000  0.28100000  0.66860000  1
  F  F382  1  0.87480000  0.23370000  0.72280000  1
  F  F383  1  0.86240000  0.20670000  0.64420000  1
  F  F384  1  0.67760000  0.66860000  0.28100000  1
  F  F385  1  0.62520000  0.72280000  0.23370000  1
  F  F386  1  0.63760000  0.64420000  0.20670000  1
  F  F387  1  0.67760000  0.33140000  0.71900000  1
  F  F388  1  0.62520000  0.27720000  0.76630000  1
  F  F389  1  0.63760000  0.35580000  0.79330000  1
  F  F390  1  0.31090000  0.15930000  0.12130000  1
  F  F391  1  0.38680000  0.22030000  0.15040000  1
  F  F392  1  0.41090000  0.12980000  0.15300000  1
  F  F393  1  0.31090000  0.84070000  0.87870000  1
  F  F394  1  0.38680000  0.77970000  0.84960000  1
  F  F395  1  0.41090000  0.87020000  0.84700000  1
  F  F396  1  0.81090000  0.87870000  0.84070000  1
  F  F397  1  0.88680000  0.84960000  0.77970000  1
  F  F398  1  0.91090000  0.84700000  0.87020000  1
  F  F399  1  0.58680000  0.56140000  0.13970000  1
  F  F400  1  0.67760000  0.33140000  0.28100000  1
  F  F401  1  0.62520000  0.27720000  0.23370000  1
  F  F402  1  0.63760000  0.35580000  0.20670000  1
  F  F403  1  0.31090000  0.15930000  0.87870000  1
  F  F404  1  0.38680000  0.22030000  0.84960000  1
  F  F405  1  0.41090000  0.12980000  0.84700000  1
  F  F406  1  0.08680000  0.86030000  0.56140000  1
  F  F407  1  0.31090000  0.84070000  0.12130000  1
  F  F408  1  0.38680000  0.77970000  0.15040000  1
  F  F409  1  0.41090000  0.87020000  0.15300000  1
  F  F410  1  0.18910000  0.12130000  0.84070000  1
  F  F411  1  0.11320000  0.15040000  0.77970000  1
  F  F412  1  0.08910000  0.15300000  0.87020000  1
  F  F413  1  0.32240000  0.66860000  0.28100000  1
  F  F414  1  0.37480000  0.72280000  0.23370000  1
  F  F415  1  0.36240000  0.64420000  0.20670000  1
  F  F416  1  0.41320000  0.56140000  0.86030000  1
  F  F417  1  0.82240000  0.71900000  0.66860000  1
  F  F418  1  0.87480000  0.76630000  0.72280000  1
  F  F419  1  0.86240000  0.79330000  0.64420000  1
  F  F420  1  0.91320000  0.13970000  0.56140000  1
  F  F421  1  0.82240000  0.28100000  0.33140000  1
  F  F422  1  0.87480000  0.23370000  0.27720000  1
  F  F423  1  0.86240000  0.20670000  0.35580000  1
  F  F424  1  0.50000000  0.59020000  0.08550000  1
  F  F425  1  0.00000000  0.91450000  0.59020000  1
  F  F426  1  0.50000000  0.59020000  0.91450000  1
  F  F427  1  0.00000000  0.08550000  0.59020000  1
  F  F428  1  0.50000000  0.50000000  0.87700000  1
  F  F429  1  0.50000000  0.50000000  0.12300000  1
  F  F430  1  1.00000000  0.12300000  0.50000000  1
  F  F431  1  0.00000000  0.87700000  0.50000000  1
