# generated using pymatgen
data_Zr3H20C50(OF)16
_symmetry_space_group_name_H-M   'P 1'
_cell_length_a   18.78900000
_cell_length_b   23.11630000
_cell_length_c   23.11630000
_cell_angle_alpha   90.00000000
_cell_angle_beta   90.00000000
_cell_angle_gamma   90.00000000
_symmetry_Int_Tables_number   1
_chemical_formula_structural   Zr3H20C50(OF)16
_chemical_formula_sum   'Zr12 H80 C200 O64 F64'
_cell_volume   10040.15252639
_cell_formula_units_Z   4
loop_
 _symmetry_equiv_pos_site_id
 _symmetry_equiv_pos_as_xyz
  1  'x, y, z'
loop_
 _atom_site_type_symbol
 _atom_site_label
 _atom_site_symmetry_multiplicity
 _atom_site_fract_x
 _atom_site_fract_y
 _atom_site_fract_z
 _atom_site_occupancy
  Zr  Zr0  1  0.09266000  0.07531000  0.50000000  1
  Zr  Zr1  1  0.09266000  0.92469000  0.50000000  1
  Zr  Zr2  1  0.59266000  0.50000000  0.07531000  1
  Zr  Zr3  1  0.59266000  0.50000000  0.92469000  1
  Zr  Zr4  1  0.90734000  0.92469000  0.50000000  1
  Zr  Zr5  1  0.90734000  0.07531000  0.50000000  1
  Zr  Zr6  1  0.40734000  0.50000000  0.07531000  1
  Zr  Zr7  1  0.40734000  0.50000000  0.92469000  1
  Zr  Zr8  1  0.00000000  0.00000000  0.39136000  1
  Zr  Zr9  1  0.00000000  0.00000000  0.60864000  1
  Zr  Zr10  1  0.50000000  0.60864000  0.00000000  1
  Zr  Zr11  1  0.50000000  0.39136000  0.00000000  1
  H  H12  1  0.08930000  0.11490000  0.25530000  1
  H  H13  1  0.24050000  0.16140000  0.37870000  1
  H  H14  1  0.29510000  0.21870000  0.30250000  1
  H  H15  1  0.08930000  0.88510000  0.74470000  1
  H  H16  1  0.24050000  0.83860000  0.62130000  1
  H  H17  1  0.29510000  0.78130000  0.69750000  1
  H  H18  1  0.58930000  0.74470000  0.11490000  1
  H  H19  1  0.74050000  0.62130000  0.16140000  1
  H  H20  1  0.79510000  0.69750000  0.21870000  1
  H  H21  1  0.58930000  0.25530000  0.88510000  1
  H  H22  1  0.74050000  0.37870000  0.83860000  1
  H  H23  1  0.65050000  0.18540000  0.82590000  1
  H  H24  1  0.91070000  0.88510000  0.25530000  1
  H  H25  1  0.75950000  0.83860000  0.37870000  1
  H  H26  1  0.84950000  0.82590000  0.18540000  1
  H  H27  1  0.91070000  0.11490000  0.74470000  1
  H  H28  1  0.75950000  0.16140000  0.62130000  1
  H  H29  1  0.70490000  0.21870000  0.69750000  1
  H  H30  1  0.41070000  0.25530000  0.11490000  1
  H  H31  1  0.25950000  0.37870000  0.16140000  1
  H  H32  1  0.34950000  0.18540000  0.17410000  1
  H  H33  1  0.41070000  0.74470000  0.88510000  1
  H  H34  1  0.25950000  0.62130000  0.83860000  1
  H  H35  1  0.34950000  0.81460000  0.82590000  1
  H  H36  1  0.91070000  0.88510000  0.74470000  1
  H  H37  1  0.75950000  0.83860000  0.62130000  1
  H  H38  1  0.84950000  0.82590000  0.81460000  1
  H  H39  1  0.91070000  0.11490000  0.25530000  1
  H  H40  1  0.75950000  0.16140000  0.37870000  1
  H  H41  1  0.70490000  0.21870000  0.30250000  1
  H  H42  1  0.41070000  0.25530000  0.88510000  1
  H  H43  1  0.25950000  0.37870000  0.83860000  1
  H  H44  1  0.34950000  0.18540000  0.82590000  1
  H  H45  1  0.41070000  0.74470000  0.11490000  1
  H  H46  1  0.25950000  0.62130000  0.16140000  1
  H  H47  1  0.20490000  0.69750000  0.21870000  1
  H  H48  1  0.08930000  0.11490000  0.74470000  1
  H  H49  1  0.24050000  0.16140000  0.62130000  1
  H  H50  1  0.29510000  0.21870000  0.69750000  1
  H  H51  1  0.08930000  0.88510000  0.25530000  1
  H  H52  1  0.24050000  0.83860000  0.37870000  1
  H  H53  1  0.15050000  0.82590000  0.18540000  1
  H  H54  1  0.58930000  0.74470000  0.88510000  1
  H  H55  1  0.74050000  0.62130000  0.83860000  1
  H  H56  1  0.79510000  0.69750000  0.78130000  1
  H  H57  1  0.58930000  0.25530000  0.11490000  1
  H  H58  1  0.74050000  0.37870000  0.16140000  1
  H  H59  1  0.65050000  0.18540000  0.17410000  1
  H  H60  1  0.32370000  0.08750000  0.50000000  1
  H  H61  1  0.10790000  0.26420000  0.50000000  1
  H  H62  1  0.10790000  0.36560000  0.50000000  1
  H  H63  1  0.44870000  0.08770000  0.50000000  1
  H  H64  1  0.32370000  0.91250000  0.50000000  1
  H  H65  1  0.10790000  0.73580000  0.50000000  1
  H  H66  1  0.10790000  0.63440000  0.50000000  1
  H  H67  1  0.10790000  0.55070000  0.50000000  1
  H  H68  1  0.82370000  0.50000000  0.08750000  1
  H  H69  1  0.60790000  0.50000000  0.26420000  1
  H  H70  1  0.60790000  0.50000000  0.36560000  1
  H  H71  1  0.94870000  0.50000000  0.08770000  1
  H  H72  1  0.82370000  0.50000000  0.91250000  1
  H  H73  1  0.60790000  0.50000000  0.73580000  1
  H  H74  1  0.60790000  0.50000000  0.63440000  1
  H  H75  1  0.60790000  0.50000000  0.55070000  1
  H  H76  1  0.67630000  0.91250000  0.50000000  1
  H  H77  1  0.89210000  0.73580000  0.50000000  1
  H  H78  1  0.89210000  0.63440000  0.50000000  1
  H  H79  1  0.55130000  0.91230000  0.50000000  1
  H  H80  1  0.67630000  0.08750000  0.50000000  1
  H  H81  1  0.89210000  0.26420000  0.50000000  1
  H  H82  1  0.89210000  0.36560000  0.50000000  1
  H  H83  1  0.89210000  0.44930000  0.50000000  1
  H  H84  1  0.17630000  0.50000000  0.08750000  1
  H  H85  1  0.39210000  0.50000000  0.26420000  1
  H  H86  1  0.39210000  0.50000000  0.36560000  1
  H  H87  1  0.39210000  0.50000000  0.44930000  1
  H  H88  1  0.17630000  0.50000000  0.91250000  1
  H  H89  1  0.39210000  0.50000000  0.73580000  1
  H  H90  1  0.39210000  0.50000000  0.63440000  1
  H  H91  1  0.05130000  0.50000000  0.91230000  1
  C  C92  1  0.22900000  0.20200000  0.23850000  1
  C  C93  1  0.16830000  0.17160000  0.22370000  1
  C  C94  1  0.13100000  0.13560000  0.26590000  1
  C  C95  1  0.15800000  0.13230000  0.32210000  1
  C  C96  1  0.22160000  0.16320000  0.34060000  1
  C  C97  1  0.25330000  0.19750000  0.29340000  1
  C  C98  1  0.12060000  0.09600000  0.36570000  1
  C  C99  1  0.13770000  0.17380000  0.16490000  1
  C  C100  1  0.22900000  0.79800000  0.76150000  1
  C  C101  1  0.16830000  0.82840000  0.77630000  1
  C  C102  1  0.13100000  0.86440000  0.73410000  1
  C  C103  1  0.15800000  0.86770000  0.67790000  1
  C  C104  1  0.22160000  0.83680000  0.65940000  1
  C  C105  1  0.25330000  0.80250000  0.70660000  1
  C  C106  1  0.12060000  0.90400000  0.63430000  1
  C  C107  1  0.13770000  0.82620000  0.83510000  1
  C  C108  1  0.72900000  0.76150000  0.20200000  1
  C  C109  1  0.66830000  0.77630000  0.17160000  1
  C  C110  1  0.63100000  0.73410000  0.13560000  1
  C  C111  1  0.65800000  0.67790000  0.13230000  1
  C  C112  1  0.72160000  0.65940000  0.16320000  1
  C  C113  1  0.75330000  0.70660000  0.19750000  1
  C  C114  1  0.62060000  0.63430000  0.09600000  1
  C  C115  1  0.63770000  0.83510000  0.17380000  1
  C  C116  1  0.72900000  0.23850000  0.79800000  1
  C  C117  1  0.66830000  0.22370000  0.82840000  1
  C  C118  1  0.63100000  0.26590000  0.86440000  1
  C  C119  1  0.65800000  0.32210000  0.86770000  1
  C  C120  1  0.72160000  0.34060000  0.83680000  1
  C  C121  1  0.75330000  0.29340000  0.80250000  1
  C  C122  1  0.62060000  0.36570000  0.90400000  1
  C  C123  1  0.81710000  0.31970000  0.77400000  1
  C  C124  1  0.77100000  0.79800000  0.23850000  1
  C  C125  1  0.83170000  0.82840000  0.22370000  1
  C  C126  1  0.86900000  0.86440000  0.26590000  1
  C  C127  1  0.84200000  0.86770000  0.32210000  1
  C  C128  1  0.77840000  0.83680000  0.34060000  1
  C  C129  1  0.74670000  0.80250000  0.29340000  1
  C  C130  1  0.87940000  0.90400000  0.36570000  1
  C  C131  1  0.68290000  0.77400000  0.31970000  1
  C  C132  1  0.77100000  0.20200000  0.76150000  1
  C  C133  1  0.83170000  0.17160000  0.77630000  1
  C  C134  1  0.86900000  0.13560000  0.73410000  1
  C  C135  1  0.84200000  0.13230000  0.67790000  1
  C  C136  1  0.77840000  0.16320000  0.65940000  1
  C  C137  1  0.74670000  0.19750000  0.70660000  1
  C  C138  1  0.87940000  0.09600000  0.63430000  1
  C  C139  1  0.86230000  0.17380000  0.83510000  1
  C  C140  1  0.27100000  0.23850000  0.20200000  1
  C  C141  1  0.33170000  0.22370000  0.17160000  1
  C  C142  1  0.36900000  0.26590000  0.13560000  1
  C  C143  1  0.34200000  0.32210000  0.13230000  1
  C  C144  1  0.27840000  0.34060000  0.16320000  1
  C  C145  1  0.24670000  0.29340000  0.19750000  1
  C  C146  1  0.37940000  0.36570000  0.09600000  1
  C  C147  1  0.18290000  0.31970000  0.22600000  1
  C  C148  1  0.27100000  0.76150000  0.79800000  1
  C  C149  1  0.33170000  0.77630000  0.82840000  1
  C  C150  1  0.36900000  0.73410000  0.86440000  1
  C  C151  1  0.34200000  0.67790000  0.86770000  1
  C  C152  1  0.27840000  0.65940000  0.83680000  1
  C  C153  1  0.24670000  0.70660000  0.80250000  1
  C  C154  1  0.37940000  0.63430000  0.90400000  1
  C  C155  1  0.18290000  0.68030000  0.77400000  1
  C  C156  1  0.77100000  0.79800000  0.76150000  1
  C  C157  1  0.83170000  0.82840000  0.77630000  1
  C  C158  1  0.86900000  0.86440000  0.73410000  1
  C  C159  1  0.84200000  0.86770000  0.67790000  1
  C  C160  1  0.77840000  0.83680000  0.65940000  1
  C  C161  1  0.74670000  0.80250000  0.70660000  1
  C  C162  1  0.87940000  0.90400000  0.63430000  1
  C  C163  1  0.68290000  0.77400000  0.68030000  1
  C  C164  1  0.77100000  0.20200000  0.23850000  1
  C  C165  1  0.83170000  0.17160000  0.22370000  1
  C  C166  1  0.86900000  0.13560000  0.26590000  1
  C  C167  1  0.84200000  0.13230000  0.32210000  1
  C  C168  1  0.77840000  0.16320000  0.34060000  1
  C  C169  1  0.74670000  0.19750000  0.29340000  1
  C  C170  1  0.87940000  0.09600000  0.36570000  1
  C  C171  1  0.86230000  0.17380000  0.16490000  1
  C  C172  1  0.27100000  0.23850000  0.79800000  1
  C  C173  1  0.33170000  0.22370000  0.82840000  1
  C  C174  1  0.36900000  0.26590000  0.86440000  1
  C  C175  1  0.34200000  0.32210000  0.86770000  1
  C  C176  1  0.27840000  0.34060000  0.83680000  1
  C  C177  1  0.24670000  0.29340000  0.80250000  1
  C  C178  1  0.37940000  0.36570000  0.90400000  1
  C  C179  1  0.18290000  0.31970000  0.77400000  1
  C  C180  1  0.27100000  0.76150000  0.20200000  1
  C  C181  1  0.33170000  0.77630000  0.17160000  1
  C  C182  1  0.36900000  0.73410000  0.13560000  1
  C  C183  1  0.34200000  0.67790000  0.13230000  1
  C  C184  1  0.27840000  0.65940000  0.16320000  1
  C  C185  1  0.24670000  0.70660000  0.19750000  1
  C  C186  1  0.37940000  0.63430000  0.09600000  1
  C  C187  1  0.36230000  0.83510000  0.17380000  1
  C  C188  1  0.22900000  0.20200000  0.76150000  1
  C  C189  1  0.16830000  0.17160000  0.77630000  1
  C  C190  1  0.13100000  0.13560000  0.73410000  1
  C  C191  1  0.15800000  0.13230000  0.67790000  1
  C  C192  1  0.22160000  0.16320000  0.65940000  1
  C  C193  1  0.25330000  0.19750000  0.70660000  1
  C  C194  1  0.12060000  0.09600000  0.63430000  1
  C  C195  1  0.13770000  0.17380000  0.83510000  1
  C  C196  1  0.22900000  0.79800000  0.23850000  1
  C  C197  1  0.16830000  0.82840000  0.22370000  1
  C  C198  1  0.13100000  0.86440000  0.26590000  1
  C  C199  1  0.15800000  0.86770000  0.32210000  1
  C  C200  1  0.22160000  0.83680000  0.34060000  1
  C  C201  1  0.25330000  0.80250000  0.29340000  1
  C  C202  1  0.12060000  0.90400000  0.36570000  1
  C  C203  1  0.31710000  0.77400000  0.31970000  1
  C  C204  1  0.72900000  0.76150000  0.79800000  1
  C  C205  1  0.66830000  0.77630000  0.82840000  1
  C  C206  1  0.63100000  0.73410000  0.86440000  1
  C  C207  1  0.65800000  0.67790000  0.86770000  1
  C  C208  1  0.72160000  0.65940000  0.83680000  1
  C  C209  1  0.75330000  0.70660000  0.80250000  1
  C  C210  1  0.62060000  0.63430000  0.90400000  1
  C  C211  1  0.63770000  0.83510000  0.82620000  1
  C  C212  1  0.72900000  0.23850000  0.20200000  1
  C  C213  1  0.66830000  0.22370000  0.17160000  1
  C  C214  1  0.63100000  0.26590000  0.13560000  1
  C  C215  1  0.65800000  0.32210000  0.13230000  1
  C  C216  1  0.72160000  0.34060000  0.16320000  1
  C  C217  1  0.75330000  0.29340000  0.19750000  1
  C  C218  1  0.62060000  0.36570000  0.09600000  1
  C  C219  1  0.81710000  0.31970000  0.22600000  1
  C  C220  1  0.34910000  0.05200000  0.50000000  1
  C  C221  1  0.42360000  0.05210000  0.50000000  1
  C  C222  1  0.06410000  0.28480000  0.50000000  1
  C  C223  1  0.06420000  0.34500000  0.50000000  1
  C  C224  1  0.06410000  0.46990000  0.50000000  1
  C  C225  1  0.34910000  0.94800000  0.50000000  1
  C  C226  1  0.42360000  0.94790000  0.50000000  1
  C  C227  1  0.46030000  0.89060000  0.50000000  1
  C  C228  1  0.06410000  0.71520000  0.50000000  1
  C  C229  1  0.06420000  0.65500000  0.50000000  1
  C  C230  1  0.06410000  0.53010000  0.50000000  1
  C  C231  1  0.84910000  0.50000000  0.05200000  1
  C  C232  1  0.92360000  0.50000000  0.05210000  1
  C  C233  1  0.56410000  0.50000000  0.28480000  1
  C  C234  1  0.56420000  0.50000000  0.34500000  1
  C  C235  1  0.56410000  0.50000000  0.46990000  1
  C  C236  1  0.84910000  0.50000000  0.94800000  1
  C  C237  1  0.92360000  0.50000000  0.94790000  1
  C  C238  1  0.96030000  0.50000000  0.89060000  1
  C  C239  1  0.56410000  0.50000000  0.71520000  1
  C  C240  1  0.56420000  0.50000000  0.65500000  1
  C  C241  1  0.56410000  0.50000000  0.53010000  1
  C  C242  1  0.65090000  0.94800000  0.50000000  1
  C  C243  1  0.57640000  0.94790000  0.50000000  1
  C  C244  1  0.93590000  0.71520000  0.50000000  1
  C  C245  1  0.93580000  0.65500000  0.50000000  1
  C  C246  1  0.93590000  0.53010000  0.50000000  1
  C  C247  1  0.65090000  0.05200000  0.50000000  1
  C  C248  1  0.57640000  0.05210000  0.50000000  1
  C  C249  1  0.53970000  0.10940000  0.50000000  1
  C  C250  1  0.93590000  0.28480000  0.50000000  1
  C  C251  1  0.93580000  0.34500000  0.50000000  1
  C  C252  1  0.93590000  0.46990000  0.50000000  1
  C  C253  1  0.15090000  0.50000000  0.05200000  1
  C  C254  1  0.07640000  0.50000000  0.05210000  1
  C  C255  1  0.03970000  0.50000000  0.10940000  1
  C  C256  1  0.43590000  0.50000000  0.28480000  1
  C  C257  1  0.43580000  0.50000000  0.34500000  1
  C  C258  1  0.43590000  0.50000000  0.46990000  1
  C  C259  1  0.15090000  0.50000000  0.94800000  1
  C  C260  1  0.07640000  0.50000000  0.94790000  1
  C  C261  1  0.43590000  0.50000000  0.71520000  1
  C  C262  1  0.43580000  0.50000000  0.65500000  1
  C  C263  1  0.43590000  0.50000000  0.53010000  1
  C  C264  1  0.23420000  0.00000000  0.50000000  1
  C  C265  1  0.31270000  0.00000000  0.50000000  1
  C  C266  1  0.46030000  0.00000000  0.50000000  1
  C  C267  1  0.73420000  0.50000000  0.00000000  1
  C  C268  1  0.81270000  0.50000000  0.00000000  1
  C  C269  1  0.96030000  0.50000000  0.00000000  1
  C  C270  1  0.76580000  0.00000000  0.50000000  1
  C  C271  1  0.68730000  0.00000000  0.50000000  1
  C  C272  1  0.53970000  0.00000000  0.50000000  1
  C  C273  1  0.26580000  0.50000000  0.00000000  1
  C  C274  1  0.18730000  0.50000000  0.00000000  1
  C  C275  1  0.03970000  0.50000000  0.00000000  1
  C  C276  1  0.00000000  0.19030000  0.50000000  1
  C  C277  1  0.00000000  0.25490000  0.50000000  1
  C  C278  1  0.00000000  0.37510000  0.50000000  1
  C  C279  1  0.00000000  0.43984000  0.50000000  1
  C  C280  1  1.00000000  0.80970000  0.50000000  1
  C  C281  1  0.00000000  0.74510000  0.50000000  1
  C  C282  1  1.00000000  0.62490000  0.50000000  1
  C  C283  1  0.00000000  0.56016000  0.50000000  1
  C  C284  1  0.50000000  0.50000000  0.19030000  1
  C  C285  1  0.50000000  0.50000000  0.25490000  1
  C  C286  1  0.50000000  0.50000000  0.37510000  1
  C  C287  1  0.50000000  0.50000000  0.43984000  1
  C  C288  1  0.50000000  0.50000000  0.80970000  1
  C  C289  1  0.50000000  0.50000000  0.74510000  1
  C  C290  1  0.50000000  0.50000000  0.62490000  1
  C  C291  1  0.50000000  0.50000000  0.56016000  1
  O  O292  1  0.07130000  0.05660000  0.34050000  1
  O  O293  1  0.14050000  0.11230000  0.42150000  1
  O  O294  1  0.07130000  0.94340000  0.65950000  1
  O  O295  1  0.14050000  0.88770000  0.57850000  1
  O  O296  1  0.57130000  0.65950000  0.05660000  1
  O  O297  1  0.64050000  0.57850000  0.11230000  1
  O  O298  1  0.57130000  0.34050000  0.94340000  1
  O  O299  1  0.64050000  0.42150000  0.88770000  1
  O  O300  1  0.92870000  0.94340000  0.34050000  1
  O  O301  1  0.85950000  0.88770000  0.42150000  1
  O  O302  1  0.92870000  0.05660000  0.65950000  1
  O  O303  1  0.85950000  0.11230000  0.57850000  1
  O  O304  1  0.42870000  0.34050000  0.05660000  1
  O  O305  1  0.35950000  0.42150000  0.11230000  1
  O  O306  1  0.42870000  0.65950000  0.94340000  1
  O  O307  1  0.35950000  0.57850000  0.88770000  1
  O  O308  1  0.92870000  0.94340000  0.65950000  1
  O  O309  1  0.85950000  0.88770000  0.57850000  1
  O  O310  1  0.92870000  0.05660000  0.34050000  1
  O  O311  1  0.85950000  0.11230000  0.42150000  1
  O  O312  1  0.42870000  0.34050000  0.94340000  1
  O  O313  1  0.35950000  0.42150000  0.88770000  1
  O  O314  1  0.42870000  0.65950000  0.05660000  1
  O  O315  1  0.35950000  0.57850000  0.11230000  1
  O  O316  1  0.07130000  0.05660000  0.65950000  1
  O  O317  1  0.14050000  0.11230000  0.57850000  1
  O  O318  1  0.07130000  0.94340000  0.34050000  1
  O  O319  1  0.14050000  0.88770000  0.42150000  1
  O  O320  1  0.57130000  0.65950000  0.94340000  1
  O  O321  1  0.64050000  0.57850000  0.88770000  1
  O  O322  1  0.57130000  0.34050000  0.05660000  1
  O  O323  1  0.64050000  0.42150000  0.11230000  1
  O  O324  1  0.20460000  0.05270000  0.50000000  1
  O  O325  1  0.05860000  0.16860000  0.50000000  1
  O  O326  1  0.20460000  0.94730000  0.50000000  1
  O  O327  1  0.05860000  0.83140000  0.50000000  1
  O  O328  1  0.70460000  0.50000000  0.05270000  1
  O  O329  1  0.55860000  0.50000000  0.16860000  1
  O  O330  1  0.70460000  0.50000000  0.94730000  1
  O  O331  1  0.55860000  0.50000000  0.83140000  1
  O  O332  1  0.79540000  0.94730000  0.50000000  1
  O  O333  1  0.94140000  0.83140000  0.50000000  1
  O  O334  1  0.79540000  0.05270000  0.50000000  1
  O  O335  1  0.94140000  0.16860000  0.50000000  1
  O  O336  1  0.29540000  0.50000000  0.05270000  1
  O  O337  1  0.44140000  0.50000000  0.16860000  1
  O  O338  1  0.29540000  0.50000000  0.94730000  1
  O  O339  1  0.44140000  0.50000000  0.83140000  1
  O  O340  1  0.00000000  0.07500000  0.44520000  1
  O  O341  1  0.00000000  0.92500000  0.55480000  1
  O  O342  1  0.50000000  0.55480000  0.07500000  1
  O  O343  1  0.50000000  0.44520000  0.92500000  1
  O  O344  1  1.00000000  0.92500000  0.44520000  1
  O  O345  1  0.00000000  0.07500000  0.55480000  1
  O  O346  1  0.50000000  0.44520000  0.07500000  1
  O  O347  1  0.50000000  0.55480000  0.92500000  1
  O  O348  1  0.09250000  0.00000000  0.44490000  1
  O  O349  1  0.09250000  0.00000000  0.55510000  1
  O  O350  1  0.59250000  0.55510000  0.00000000  1
  O  O351  1  0.59250000  0.44490000  0.00000000  1
  O  O352  1  0.90750000  0.00000000  0.44490000  1
  O  O353  1  0.90750000  0.00000000  0.55510000  1
  O  O354  1  0.40750000  0.44490000  0.00000000  1
  O  O355  1  0.40750000  0.55510000  0.00000000  1
  F  F356  1  0.18630000  0.16500000  0.12270000  1
  F  F357  1  0.10790000  0.22620000  0.15300000  1
  F  F358  1  0.08520000  0.13480000  0.15630000  1
  F  F359  1  0.18630000  0.83500000  0.87730000  1
  F  F360  1  0.10790000  0.77380000  0.84700000  1
  F  F361  1  0.08520000  0.86520000  0.84370000  1
  F  F362  1  0.68630000  0.87730000  0.16500000  1
  F  F363  1  0.60790000  0.84700000  0.22620000  1
  F  F364  1  0.58520000  0.84370000  0.13480000  1
  F  F365  1  0.87020000  0.28120000  0.76700000  1
  F  F366  1  0.84400000  0.36420000  0.80460000  1
  F  F367  1  0.80100000  0.34000000  0.72080000  1
  F  F368  1  0.62980000  0.76700000  0.28120000  1
  F  F369  1  0.65600000  0.80460000  0.36420000  1
  F  F370  1  0.69900000  0.72080000  0.34000000  1
  F  F371  1  0.81370000  0.16500000  0.87730000  1
  F  F372  1  0.89210000  0.22620000  0.84700000  1
  F  F373  1  0.91480000  0.13480000  0.84370000  1
  F  F374  1  0.12980000  0.28120000  0.23300000  1
  F  F375  1  0.15600000  0.36420000  0.19540000  1
  F  F376  1  0.19900000  0.34000000  0.27920000  1
  F  F377  1  0.12980000  0.71880000  0.76700000  1
  F  F378  1  0.15600000  0.63580000  0.80460000  1
  F  F379  1  0.19900000  0.66000000  0.72080000  1
  F  F380  1  0.62980000  0.76700000  0.71880000  1
  F  F381  1  0.65600000  0.80460000  0.63580000  1
  F  F382  1  0.69900000  0.72080000  0.66000000  1
  F  F383  1  0.81370000  0.16500000  0.12270000  1
  F  F384  1  0.89210000  0.22620000  0.15300000  1
  F  F385  1  0.91480000  0.13480000  0.15630000  1
  F  F386  1  0.12980000  0.28120000  0.76700000  1
  F  F387  1  0.15600000  0.36420000  0.80460000  1
  F  F388  1  0.19900000  0.34000000  0.72080000  1
  F  F389  1  0.31370000  0.87730000  0.16500000  1
  F  F390  1  0.39210000  0.84700000  0.22620000  1
  F  F391  1  0.41480000  0.84370000  0.13480000  1
  F  F392  1  0.18630000  0.16500000  0.87730000  1
  F  F393  1  0.10790000  0.22620000  0.84700000  1
  F  F394  1  0.08520000  0.13480000  0.84370000  1
  F  F395  1  0.37020000  0.76700000  0.28120000  1
  F  F396  1  0.34400000  0.80460000  0.36420000  1
  F  F397  1  0.30100000  0.72080000  0.34000000  1
  F  F398  1  0.68630000  0.87730000  0.83500000  1
  F  F399  1  0.60790000  0.84700000  0.77380000  1
  F  F400  1  0.58520000  0.84370000  0.86520000  1
  F  F401  1  0.87020000  0.28120000  0.23300000  1
  F  F402  1  0.84400000  0.36420000  0.19540000  1
  F  F403  1  0.80100000  0.34000000  0.27920000  1
  F  F404  1  0.12500000  0.44290000  0.50000000  1
  F  F405  1  0.41170000  0.84650000  0.50000000  1
  F  F406  1  0.62500000  0.50000000  0.44290000  1
  F  F407  1  0.91170000  0.50000000  0.84650000  1
  F  F408  1  0.87500000  0.55710000  0.50000000  1
  F  F409  1  0.58830000  0.15350000  0.50000000  1
  F  F410  1  0.08830000  0.50000000  0.15350000  1
  F  F411  1  0.37500000  0.50000000  0.55710000  1
  F  F412  1  0.50000000  0.11830000  0.54750000  1
  F  F413  1  0.50000000  0.88170000  0.45250000  1
  F  F414  1  0.00000000  0.45250000  0.11830000  1
  F  F415  1  1.00000000  0.54750000  0.88170000  1
  F  F416  1  0.50000000  0.88170000  0.54750000  1
  F  F417  1  0.50000000  0.11830000  0.45250000  1
  F  F418  1  1.00000000  0.54750000  0.11830000  1
  F  F419  1  0.00000000  0.45250000  0.88170000  1
