# generated using pymatgen
data_Zr6H43C100N(O16F15)2
_symmetry_space_group_name_H-M   'P 1'
_cell_length_a   18.85420000
_cell_length_b   23.12600000
_cell_length_c   23.12600000
_cell_angle_alpha   90.00000000
_cell_angle_beta   90.00000000
_cell_angle_gamma   90.00000000
_symmetry_Int_Tables_number   1
_chemical_formula_structural   Zr6H43C100N(O16F15)2
_chemical_formula_sum   'Zr12 H86 C200 N2 O64 F60'
_cell_volume   10083.45007248
_cell_formula_units_Z   2
loop_
 _symmetry_equiv_pos_site_id
 _symmetry_equiv_pos_as_xyz
  1  'x, y, z'
loop_
 _atom_site_type_symbol
 _atom_site_label
 _atom_site_symmetry_multiplicity
 _atom_site_fract_x
 _atom_site_fract_y
 _atom_site_fract_z
 _atom_site_occupancy
  Zr  Zr0  1  0.09241000  0.42432000  0.00000000  1
  Zr  Zr1  1  0.09241000  0.57568000  0.00000000  1
  Zr  Zr2  1  0.59241000  1.00000000  0.42432000  1
  Zr  Zr3  1  0.59241000  1.00000000  0.57568000  1
  Zr  Zr4  1  0.90759000  0.57568000  0.00000000  1
  Zr  Zr5  1  0.90759000  0.42432000  0.00000000  1
  Zr  Zr6  1  0.40759000  1.00000000  0.42432000  1
  Zr  Zr7  1  0.40759000  1.00000000  0.57568000  1
  Zr  Zr8  1  0.00000000  0.50000000  0.10750000  1
  Zr  Zr9  1  0.00000000  0.50000000  0.89250000  1
  Zr  Zr10  1  0.50000000  0.89250000  0.50000000  1
  Zr  Zr11  1  0.50000000  0.10750000  0.50000000  1
  H  H12  1  0.09780000  0.39270000  0.25010000  1
  H  H13  1  0.22760000  0.33550000  0.12600000  1
  H  H14  1  0.15690000  0.33400000  0.31650000  1
  H  H15  1  0.09780000  0.60730000  0.74990000  1
  H  H16  1  0.22760000  0.66450000  0.87400000  1
  H  H17  1  0.29500000  0.71430000  0.80610000  1
  H  H18  1  0.59780000  0.74990000  0.39270000  1
  H  H19  1  0.72760000  0.87400000  0.33550000  1
  H  H20  1  0.79500000  0.80610000  0.28570000  1
  H  H21  1  0.59780000  0.25010000  0.60730000  1
  H  H22  1  0.72760000  0.12600000  0.66450000  1
  H  H23  1  0.65690000  0.31650000  0.66600000  1
  H  H24  1  0.90220000  0.60730000  0.25010000  1
  H  H25  1  0.77240000  0.66450000  0.12600000  1
  H  H26  1  0.84310000  0.66600000  0.31650000  1
  H  H27  1  0.90220000  0.39270000  0.74990000  1
  H  H28  1  0.77240000  0.33550000  0.87400000  1
  H  H29  1  0.70500000  0.28570000  0.80610000  1
  H  H30  1  0.40220000  0.25010000  0.39270000  1
  H  H31  1  0.27240000  0.12600000  0.33550000  1
  H  H32  1  0.20500000  0.19390000  0.28570000  1
  H  H33  1  0.40220000  0.74990000  0.60730000  1
  H  H34  1  0.27240000  0.87400000  0.66450000  1
  H  H35  1  0.34310000  0.68350000  0.66600000  1
  H  H36  1  0.90220000  0.60730000  0.74990000  1
  H  H37  1  0.77240000  0.66450000  0.87400000  1
  H  H38  1  0.70500000  0.71430000  0.80610000  1
  H  H39  1  0.90220000  0.39270000  0.25010000  1
  H  H40  1  0.77240000  0.33550000  0.12600000  1
  H  H41  1  0.70500000  0.28570000  0.19390000  1
  H  H42  1  0.40220000  0.25010000  0.60730000  1
  H  H43  1  0.27240000  0.12600000  0.66450000  1
  H  H44  1  0.34310000  0.31650000  0.66600000  1
  H  H45  1  0.40220000  0.74990000  0.39270000  1
  H  H46  1  0.27240000  0.87400000  0.33550000  1
  H  H47  1  0.34310000  0.68350000  0.33400000  1
  H  H48  1  0.09780000  0.39270000  0.74990000  1
  H  H49  1  0.22760000  0.33550000  0.87400000  1
  H  H50  1  0.29500000  0.28570000  0.80610000  1
  H  H51  1  0.09780000  0.60730000  0.25010000  1
  H  H52  1  0.22760000  0.66450000  0.12600000  1
  H  H53  1  0.29500000  0.71430000  0.19390000  1
  H  H54  1  0.59780000  0.74990000  0.60730000  1
  H  H55  1  0.72760000  0.87400000  0.66450000  1
  H  H56  1  0.65690000  0.68350000  0.66600000  1
  H  H57  1  0.59780000  0.25010000  0.39270000  1
  H  H58  1  0.72760000  0.12600000  0.33550000  1
  H  H59  1  0.65690000  0.31650000  0.33400000  1
  H  H60  1  0.10750000  0.13330000  0.00000000  1
  H  H61  1  0.10770000  0.23440000  0.00000000  1
  H  H62  1  0.32400000  0.41220000  0.00000000  1
  H  H63  1  0.10750000  0.86670000  0.00000000  1
  H  H64  1  0.10770000  0.76560000  0.00000000  1
  H  H65  1  0.32400000  0.58780000  0.00000000  1
  H  H66  1  0.44830000  0.58780000  0.00000000  1
  H  H67  1  0.60750000  0.00000000  0.13330000  1
  H  H68  1  0.60770000  1.00000000  0.23440000  1
  H  H69  1  0.82400000  1.00000000  0.41220000  1
  H  H70  1  0.60750000  1.00000000  0.86670000  1
  H  H71  1  0.60770000  0.00000000  0.76560000  1
  H  H72  1  0.82400000  0.00000000  0.58780000  1
  H  H73  1  0.94830000  0.00000000  0.58780000  1
  H  H74  1  0.89250000  0.86670000  0.00000000  1
  H  H75  1  0.89230000  0.76560000  0.00000000  1
  H  H76  1  0.67600000  0.58780000  0.00000000  1
  H  H77  1  0.89250000  0.13330000  0.00000000  1
  H  H78  1  0.89230000  0.23440000  0.00000000  1
  H  H79  1  0.67600000  0.41220000  0.00000000  1
  H  H80  1  0.55170000  0.41220000  0.00000000  1
  H  H81  1  0.39250000  0.00000000  0.13330000  1
  H  H82  1  0.39230000  1.00000000  0.23440000  1
  H  H83  1  0.17600000  1.00000000  0.41220000  1
  H  H84  1  0.05170000  1.00000000  0.41220000  1
  H  H85  1  0.39250000  1.00000000  0.86670000  1
  H  H86  1  0.39230000  0.00000000  0.76560000  1
  H  H87  1  0.17600000  0.00000000  0.58780000  1
  H  H88  1  0.00000000  0.05060000  0.08780000  1
  H  H89  1  0.00000000  0.95940000  0.86210000  1
  H  H90  1  0.00000000  0.90210000  0.89460000  1
  H  H91  1  0.50000000  0.91220000  0.05060000  1
  H  H92  1  0.50000000  0.13790000  0.95940000  1
  H  H93  1  0.50000000  0.10540000  0.90210000  1
  H  H94  1  0.00000000  0.94940000  0.08780000  1
  H  H95  1  0.00000000  0.05060000  0.91220000  1
  H  H96  1  0.50000000  0.08780000  0.05060000  1
  H  H97  1  0.50000000  0.91220000  0.94940000  1
  C  C98  1  0.23080000  0.30290000  0.26150000  1
  C  C99  1  0.17270000  0.33520000  0.27750000  1
  C  C100  1  0.13660000  0.36940000  0.23800000  1
  C  C101  1  0.15740000  0.36920000  0.18190000  1
  C  C102  1  0.21430000  0.33660000  0.16570000  1
  C  C103  1  0.25310000  0.30530000  0.20550000  1
  C  C104  1  0.11740000  0.40420000  0.13710000  1
  C  C105  1  0.31990000  0.27750000  0.18370000  1
  C  C106  1  0.23080000  0.69710000  0.73850000  1
  C  C107  1  0.17270000  0.66480000  0.72250000  1
  C  C108  1  0.13660000  0.63060000  0.76200000  1
  C  C109  1  0.15740000  0.63080000  0.81810000  1
  C  C110  1  0.21430000  0.66340000  0.83430000  1
  C  C111  1  0.25310000  0.69470000  0.79450000  1
  C  C112  1  0.11740000  0.59580000  0.86290000  1
  C  C113  1  0.14100000  0.66740000  0.66310000  1
  C  C114  1  0.73080000  0.73850000  0.30290000  1
  C  C115  1  0.67270000  0.72250000  0.33520000  1
  C  C116  1  0.63660000  0.76200000  0.36940000  1
  C  C117  1  0.65740000  0.81810000  0.36920000  1
  C  C118  1  0.71430000  0.83430000  0.33660000  1
  C  C119  1  0.75310000  0.79450000  0.30530000  1
  C  C120  1  0.61740000  0.86290000  0.40420000  1
  C  C121  1  0.64100000  0.66310000  0.33260000  1
  C  C122  1  0.73080000  0.26150000  0.69710000  1
  C  C123  1  0.67270000  0.27750000  0.66480000  1
  C  C124  1  0.63660000  0.23800000  0.63060000  1
  C  C125  1  0.65740000  0.18190000  0.63080000  1
  C  C126  1  0.71430000  0.16570000  0.66340000  1
  C  C127  1  0.75310000  0.20550000  0.69470000  1
  C  C128  1  0.61740000  0.13710000  0.59580000  1
  C  C129  1  0.81990000  0.18370000  0.72250000  1
  C  C130  1  0.76920000  0.69710000  0.26150000  1
  C  C131  1  0.82730000  0.66480000  0.27750000  1
  C  C132  1  0.86340000  0.63060000  0.23800000  1
  C  C133  1  0.84260000  0.63080000  0.18190000  1
  C  C134  1  0.78570000  0.66340000  0.16570000  1
  C  C135  1  0.74690000  0.69470000  0.20550000  1
  C  C136  1  0.88260000  0.59580000  0.13710000  1
  C  C137  1  0.68010000  0.72250000  0.18370000  1
  C  C138  1  0.76920000  0.30290000  0.73850000  1
  C  C139  1  0.82730000  0.33520000  0.72250000  1
  C  C140  1  0.86340000  0.36940000  0.76200000  1
  C  C141  1  0.84260000  0.36920000  0.81810000  1
  C  C142  1  0.78570000  0.33660000  0.83430000  1
  C  C143  1  0.74690000  0.30530000  0.79450000  1
  C  C144  1  0.88260000  0.40420000  0.86290000  1
  C  C145  1  0.85900000  0.33260000  0.66310000  1
  C  C146  1  0.26920000  0.26150000  0.30290000  1
  C  C147  1  0.32730000  0.27750000  0.33520000  1
  C  C148  1  0.36340000  0.23800000  0.36940000  1
  C  C149  1  0.34260000  0.18190000  0.36920000  1
  C  C150  1  0.28570000  0.16570000  0.33660000  1
  C  C151  1  0.24690000  0.20550000  0.30530000  1
  C  C152  1  0.38260000  0.13710000  0.40420000  1
  C  C153  1  0.35900000  0.33690000  0.33260000  1
  C  C154  1  0.26920000  0.73850000  0.69710000  1
  C  C155  1  0.32730000  0.72250000  0.66480000  1
  C  C156  1  0.36340000  0.76200000  0.63060000  1
  C  C157  1  0.34260000  0.81810000  0.63080000  1
  C  C158  1  0.28570000  0.83430000  0.66340000  1
  C  C159  1  0.24690000  0.79450000  0.69470000  1
  C  C160  1  0.38260000  0.86290000  0.59580000  1
  C  C161  1  0.18010000  0.81630000  0.72250000  1
  C  C162  1  0.76920000  0.69710000  0.73850000  1
  C  C163  1  0.82730000  0.66480000  0.72250000  1
  C  C164  1  0.86340000  0.63060000  0.76200000  1
  C  C165  1  0.84260000  0.63080000  0.81810000  1
  C  C166  1  0.78570000  0.66340000  0.83430000  1
  C  C167  1  0.74690000  0.69470000  0.79450000  1
  C  C168  1  0.88260000  0.59580000  0.86290000  1
  C  C169  1  0.85900000  0.66740000  0.66310000  1
  C  C170  1  0.76920000  0.30290000  0.26150000  1
  C  C171  1  0.82730000  0.33520000  0.27750000  1
  C  C172  1  0.86340000  0.36940000  0.23800000  1
  C  C173  1  0.84260000  0.36920000  0.18190000  1
  C  C174  1  0.78570000  0.33660000  0.16570000  1
  C  C175  1  0.74690000  0.30530000  0.20550000  1
  C  C176  1  0.88260000  0.40420000  0.13710000  1
  C  C177  1  0.85900000  0.33260000  0.33690000  1
  C  C178  1  0.26920000  0.26150000  0.69710000  1
  C  C179  1  0.32730000  0.27750000  0.66480000  1
  C  C180  1  0.36340000  0.23800000  0.63060000  1
  C  C181  1  0.34260000  0.18190000  0.63080000  1
  C  C182  1  0.28570000  0.16570000  0.66340000  1
  C  C183  1  0.24690000  0.20550000  0.69470000  1
  C  C184  1  0.38260000  0.13710000  0.59580000  1
  C  C185  1  0.18010000  0.18370000  0.72250000  1
  C  C186  1  0.26920000  0.73850000  0.30290000  1
  C  C187  1  0.32730000  0.72250000  0.33520000  1
  C  C188  1  0.36340000  0.76200000  0.36940000  1
  C  C189  1  0.34260000  0.81810000  0.36920000  1
  C  C190  1  0.28570000  0.83430000  0.33660000  1
  C  C191  1  0.24690000  0.79450000  0.30530000  1
  C  C192  1  0.38260000  0.86290000  0.40420000  1
  C  C193  1  0.18010000  0.81630000  0.27750000  1
  C  C194  1  0.23080000  0.30290000  0.73850000  1
  C  C195  1  0.17270000  0.33520000  0.72250000  1
  C  C196  1  0.13660000  0.36940000  0.76200000  1
  C  C197  1  0.15740000  0.36920000  0.81810000  1
  C  C198  1  0.21430000  0.33660000  0.83430000  1
  C  C199  1  0.25310000  0.30530000  0.79450000  1
  C  C200  1  0.11740000  0.40420000  0.86290000  1
  C  C201  1  0.14100000  0.33260000  0.66310000  1
  C  C202  1  0.23080000  0.69710000  0.26150000  1
  C  C203  1  0.17270000  0.66480000  0.27750000  1
  C  C204  1  0.13660000  0.63060000  0.23800000  1
  C  C205  1  0.15740000  0.63080000  0.18190000  1
  C  C206  1  0.21430000  0.66340000  0.16570000  1
  C  C207  1  0.25310000  0.69470000  0.20550000  1
  C  C208  1  0.11740000  0.59580000  0.13710000  1
  C  C209  1  0.14100000  0.66740000  0.33690000  1
  C  C210  1  0.73080000  0.73850000  0.69710000  1
  C  C211  1  0.67270000  0.72250000  0.66480000  1
  C  C212  1  0.63660000  0.76200000  0.63060000  1
  C  C213  1  0.65740000  0.81810000  0.63080000  1
  C  C214  1  0.71430000  0.83430000  0.66340000  1
  C  C215  1  0.75310000  0.79450000  0.69470000  1
  C  C216  1  0.61740000  0.86290000  0.59580000  1
  C  C217  1  0.81990000  0.81630000  0.72250000  1
  C  C218  1  0.73080000  0.26150000  0.30290000  1
  C  C219  1  0.67270000  0.27750000  0.33520000  1
  C  C220  1  0.63660000  0.23800000  0.36940000  1
  C  C221  1  0.65740000  0.18190000  0.36920000  1
  C  C222  1  0.71430000  0.16570000  0.33660000  1
  C  C223  1  0.75310000  0.20550000  0.30530000  1
  C  C224  1  0.61740000  0.13710000  0.40420000  1
  C  C225  1  0.81990000  0.18370000  0.27750000  1
  C  C226  1  0.06390000  0.15380000  0.00000000  1
  C  C227  1  0.06400000  0.21380000  0.00000000  1
  C  C228  1  0.42310000  0.44780000  0.00000000  1
  C  C229  1  0.34930000  0.44777000  0.00000000  1
  C  C230  1  0.45840000  0.38940000  0.00000000  1
  C  C231  1  0.06390000  0.84620000  0.00000000  1
  C  C232  1  0.06400000  0.78620000  0.00000000  1
  C  C233  1  0.42310000  0.55220000  0.00000000  1
  C  C234  1  0.34930000  0.55223000  0.00000000  1
  C  C235  1  0.56390000  0.00000000  0.15380000  1
  C  C236  1  0.56400000  1.00000000  0.21380000  1
  C  C237  1  0.92310000  1.00000000  0.44780000  1
  C  C238  1  0.84930000  0.00000000  0.44777000  1
  C  C239  1  0.95840000  0.00000000  0.38940000  1
  C  C240  1  0.56390000  1.00000000  0.84620000  1
  C  C241  1  0.56400000  1.00000000  0.78620000  1
  C  C242  1  0.92310000  0.00000000  0.55220000  1
  C  C243  1  0.84930000  1.00000000  0.55223000  1
  C  C244  1  0.93610000  0.84620000  0.00000000  1
  C  C245  1  0.93600000  0.78620000  0.00000000  1
  C  C246  1  0.57690000  0.55220000  0.00000000  1
  C  C247  1  0.65070000  0.55223000  0.00000000  1
  C  C248  1  0.54160000  0.61060000  0.00000000  1
  C  C249  1  0.93610000  0.15380000  0.00000000  1
  C  C250  1  0.93600000  0.21380000  0.00000000  1
  C  C251  1  0.57690000  0.44780000  0.00000000  1
  C  C252  1  0.65070000  0.44777000  0.00000000  1
  C  C253  1  0.43610000  0.00000000  0.15380000  1
  C  C254  1  0.43600000  1.00000000  0.21380000  1
  C  C255  1  0.07690000  1.00000000  0.44780000  1
  C  C256  1  0.15070000  0.00000000  0.44777000  1
  C  C257  1  0.43610000  1.00000000  0.84620000  1
  C  C258  1  0.43600000  1.00000000  0.78620000  1
  C  C259  1  0.07690000  0.00000000  0.55220000  1
  C  C260  1  0.15070000  1.00000000  0.55223000  1
  C  C261  1  0.04160000  0.00000000  0.61060000  1
  C  C262  1  0.00000000  0.03004000  0.05224000  1
  C  C263  1  0.00000000  0.96996000  0.94776000  1
  C  C264  1  0.50000000  0.94776000  0.03004000  1
  C  C265  1  0.50000000  0.05224000  0.96996000  1
  C  C266  1  0.00000000  0.96996000  0.05224000  1
  C  C267  1  0.00000000  0.03004000  0.94776000  1
  C  C268  1  0.50000000  0.05224000  0.03004000  1
  C  C269  1  0.50000000  0.94776000  0.96996000  1
  C  C270  1  0.00000000  0.06025000  0.00000000  1
  C  C271  1  0.00000000  0.12370000  0.00000000  1
  C  C272  1  0.00000000  0.24400000  0.00000000  1
  C  C273  1  0.00000000  0.30860000  0.00000000  1
  C  C274  1  0.00000000  0.93975000  0.00000000  1
  C  C275  1  0.00000000  0.87630000  0.00000000  1
  C  C276  1  0.00000000  0.75600000  0.00000000  1
  C  C277  1  0.00000000  0.69140000  0.00000000  1
  C  C278  1  0.50000000  0.00000000  0.06025000  1
  C  C279  1  0.50000000  0.00000000  0.12370000  1
  C  C280  1  0.50000000  1.00000000  0.24400000  1
  C  C281  1  0.50000000  0.00000000  0.30860000  1
  C  C282  1  0.50000000  1.00000000  0.93975000  1
  C  C283  1  0.50000000  1.00000000  0.87630000  1
  C  C284  1  0.50000000  1.00000000  0.75600000  1
  C  C285  1  0.50000000  0.00000000  0.69140000  1
  C  C286  1  0.46020000  0.50000000  0.00000000  1
  C  C287  1  0.31260000  0.50000000  0.00000000  1
  C  C288  1  0.23320000  0.50000000  0.00000000  1
  C  C289  1  0.96020000  1.00000000  0.50000000  1
  C  C290  1  0.81260000  1.00000000  0.50000000  1
  C  C291  1  0.73320000  1.00000000  0.50000000  1
  C  C292  1  0.53980000  0.50000000  0.00000000  1
  C  C293  1  0.68740000  0.50000000  0.00000000  1
  C  C294  1  0.76680000  0.50000000  0.00000000  1
  C  C295  1  0.03980000  1.00000000  0.50000000  1
  C  C296  1  0.18740000  1.00000000  0.50000000  1
  C  C297  1  0.26680000  1.00000000  0.50000000  1
  N  N298  1  0.00000000  0.94010000  0.89490000  1
  N  N299  1  0.50000000  0.10510000  0.94010000  1
  O  O300  1  0.13280000  0.39148000  0.08426000  1
  O  O301  1  0.07270000  0.44124000  0.15592000  1
  O  O302  1  0.13280000  0.60852000  0.91574000  1
  O  O303  1  0.07270000  0.55876000  0.84408000  1
  O  O304  1  0.63280000  0.91574000  0.39148000  1
  O  O305  1  0.57270000  0.84408000  0.44124000  1
  O  O306  1  0.63280000  0.08426000  0.60852000  1
  O  O307  1  0.57270000  0.15592000  0.55876000  1
  O  O308  1  0.86720000  0.60852000  0.08426000  1
  O  O309  1  0.92730000  0.55876000  0.15592000  1
  O  O310  1  0.86720000  0.39148000  0.91574000  1
  O  O311  1  0.92730000  0.44124000  0.84408000  1
  O  O312  1  0.36720000  0.08426000  0.39148000  1
  O  O313  1  0.42730000  0.15592000  0.44124000  1
  O  O314  1  0.36720000  0.91574000  0.60852000  1
  O  O315  1  0.42730000  0.84408000  0.55876000  1
  O  O316  1  0.86720000  0.60852000  0.91574000  1
  O  O317  1  0.92730000  0.55876000  0.84408000  1
  O  O318  1  0.86720000  0.39148000  0.08426000  1
  O  O319  1  0.92730000  0.44124000  0.15592000  1
  O  O320  1  0.36720000  0.08426000  0.60852000  1
  O  O321  1  0.42730000  0.15592000  0.55876000  1
  O  O322  1  0.36720000  0.91574000  0.39148000  1
  O  O323  1  0.42730000  0.84408000  0.44124000  1
  O  O324  1  0.13280000  0.39148000  0.91574000  1
  O  O325  1  0.07270000  0.44124000  0.84408000  1
  O  O326  1  0.13280000  0.60852000  0.08426000  1
  O  O327  1  0.07270000  0.55876000  0.15592000  1
  O  O328  1  0.63280000  0.91574000  0.60852000  1
  O  O329  1  0.57270000  0.84408000  0.55876000  1
  O  O330  1  0.63280000  0.08426000  0.39148000  1
  O  O331  1  0.57270000  0.15592000  0.44124000  1
  O  O332  1  0.06140000  0.33260000  0.00000000  1
  O  O333  1  0.20610000  0.44160000  0.00000000  1
  O  O334  1  0.06140000  0.66740000  0.00000000  1
  O  O335  1  0.20610000  0.55840000  0.00000000  1
  O  O336  1  0.56140000  0.00000000  0.33260000  1
  O  O337  1  0.70610000  0.00000000  0.44160000  1
  O  O338  1  0.56140000  1.00000000  0.66740000  1
  O  O339  1  0.70610000  1.00000000  0.55840000  1
  O  O340  1  0.93860000  0.66740000  0.00000000  1
  O  O341  1  0.79390000  0.55840000  0.00000000  1
  O  O342  1  0.93860000  0.33260000  0.00000000  1
  O  O343  1  0.79390000  0.44160000  0.00000000  1
  O  O344  1  0.43860000  0.00000000  0.33260000  1
  O  O345  1  0.29390000  0.00000000  0.44160000  1
  O  O346  1  0.43860000  1.00000000  0.66740000  1
  O  O347  1  0.29390000  1.00000000  0.55840000  1
  O  O348  1  0.00000000  0.42590000  0.05320000  1
  O  O349  1  0.00000000  0.57410000  0.94680000  1
  O  O350  1  0.50000000  0.94680000  0.42590000  1
  O  O351  1  0.50000000  0.05320000  0.57410000  1
  O  O352  1  0.00000000  0.57410000  0.05320000  1
  O  O353  1  0.00000000  0.42590000  0.94680000  1
  O  O354  1  0.50000000  0.05320000  0.42590000  1
  O  O355  1  0.50000000  0.94680000  0.57410000  1
  O  O356  1  0.09220000  0.50000000  0.05250000  1
  O  O357  1  0.09220000  0.50000000  0.94750000  1
  O  O358  1  0.59220000  0.94750000  0.50000000  1
  O  O359  1  0.59220000  0.05250000  0.50000000  1
  O  O360  1  0.90780000  0.50000000  0.05250000  1
  O  O361  1  0.90780000  0.50000000  0.94750000  1
  O  O362  1  0.40780000  0.05250000  0.50000000  1
  O  O363  1  0.40780000  0.94750000  0.50000000  1
  F  F364  1  0.34270000  0.29400000  0.12900000  1
  F  F365  1  0.38080000  0.28390000  0.21400000  1
  F  F366  1  0.31870000  0.21890000  0.17500000  1
  F  F367  1  0.18700000  0.66190000  0.61930000  1
  F  F368  1  0.10960000  0.72000000  0.64950000  1
  F  F369  1  0.08850000  0.63020000  0.65060000  1
  F  F370  1  0.68700000  0.61930000  0.33810000  1
  F  F371  1  0.60960000  0.64950000  0.28000000  1
  F  F372  1  0.58850000  0.65060000  0.36980000  1
  F  F373  1  0.84270000  0.12900000  0.70600000  1
  F  F374  1  0.88080000  0.21400000  0.71610000  1
  F  F375  1  0.81870000  0.17500000  0.78110000  1
  F  F376  1  0.65730000  0.70600000  0.12900000  1
  F  F377  1  0.61920000  0.71610000  0.21400000  1
  F  F378  1  0.68130000  0.78110000  0.17500000  1
  F  F379  1  0.81300000  0.33810000  0.61930000  1
  F  F380  1  0.89040000  0.28000000  0.64950000  1
  F  F381  1  0.91150000  0.36980000  0.65060000  1
  F  F382  1  0.31300000  0.38070000  0.33810000  1
  F  F383  1  0.39040000  0.35050000  0.28000000  1
  F  F384  1  0.41150000  0.34940000  0.36980000  1
  F  F385  1  0.15730000  0.87100000  0.70600000  1
  F  F386  1  0.11920000  0.78600000  0.71610000  1
  F  F387  1  0.18130000  0.82500000  0.78110000  1
  F  F388  1  0.81300000  0.66190000  0.61930000  1
  F  F389  1  0.89040000  0.72000000  0.64950000  1
  F  F390  1  0.91150000  0.63020000  0.65060000  1
  F  F391  1  0.81300000  0.33810000  0.38070000  1
  F  F392  1  0.89040000  0.28000000  0.35050000  1
  F  F393  1  0.91150000  0.36980000  0.34940000  1
  F  F394  1  0.15730000  0.12900000  0.70600000  1
  F  F395  1  0.11920000  0.21400000  0.71610000  1
  F  F396  1  0.18130000  0.17500000  0.78110000  1
  F  F397  1  0.15730000  0.87100000  0.29400000  1
  F  F398  1  0.11920000  0.78600000  0.28390000  1
  F  F399  1  0.18130000  0.82500000  0.21890000  1
  F  F400  1  0.18700000  0.33810000  0.61930000  1
  F  F401  1  0.10960000  0.28000000  0.64950000  1
  F  F402  1  0.08850000  0.36980000  0.65060000  1
  F  F403  1  0.18700000  0.66190000  0.38070000  1
  F  F404  1  0.10960000  0.72000000  0.35050000  1
  F  F405  1  0.08850000  0.63020000  0.34940000  1
  F  F406  1  0.84270000  0.87100000  0.70600000  1
  F  F407  1  0.88080000  0.78600000  0.71610000  1
  F  F408  1  0.81870000  0.82500000  0.78110000  1
  F  F409  1  0.84270000  0.12900000  0.29400000  1
  F  F410  1  0.88080000  0.21400000  0.28390000  1
  F  F411  1  0.81870000  0.17500000  0.21890000  1
  F  F412  1  0.40740000  0.34510000  0.00000000  1
  F  F413  1  0.90740000  1.00000000  0.34510000  1
  F  F414  1  0.59260000  0.65490000  0.00000000  1
  F  F415  1  0.09260000  0.00000000  0.65490000  1
  F  F416  1  0.50000000  0.38080000  0.95130000  1
  F  F417  1  0.50000000  0.61920000  0.04870000  1
  F  F418  1  0.00000000  0.04870000  0.38080000  1
  F  F419  1  0.00000000  0.95130000  0.61920000  1
  F  F420  1  0.50000000  0.61920000  0.95130000  1
  F  F421  1  0.50000000  0.38080000  0.04870000  1
  F  F422  1  0.00000000  0.95130000  0.38080000  1
  F  F423  1  0.00000000  0.04870000  0.61920000  1
