# generated using pymatgen
data_Zr6H48C99N2(O4F3)8
_symmetry_space_group_name_H-M   'P 1'
_cell_length_a   18.88210000
_cell_length_b   23.07220000
_cell_length_c   23.07220000
_cell_angle_alpha   90.00000000
_cell_angle_beta   90.00000000
_cell_angle_gamma   90.00000000
_symmetry_Int_Tables_number   1
_chemical_formula_structural   Zr6H48C99N2(O4F3)8
_chemical_formula_sum   'Zr12 H96 C198 N4 O64 F48'
_cell_volume   10051.44055989
_cell_formula_units_Z   2
loop_
 _symmetry_equiv_pos_site_id
 _symmetry_equiv_pos_as_xyz
  1  'x, y, z'
loop_
 _atom_site_type_symbol
 _atom_site_label
 _atom_site_symmetry_multiplicity
 _atom_site_fract_x
 _atom_site_fract_y
 _atom_site_fract_z
 _atom_site_occupancy
  Zr  Zr0  1  0.09235000  1.00000000  0.42425000  1
  Zr  Zr1  1  0.09235000  0.00000000  0.57575000  1
  Zr  Zr2  1  0.59235000  0.57575000  0.00000000  1
  Zr  Zr3  1  0.59235000  0.42425000  0.00000000  1
  Zr  Zr4  1  0.90765000  1.00000000  0.42425000  1
  Zr  Zr5  1  0.90765000  0.00000000  0.57575000  1
  Zr  Zr6  1  0.40765000  0.42425000  0.00000000  1
  Zr  Zr7  1  0.40765000  0.57575000  0.00000000  1
  Zr  Zr8  1  0.00000000  0.10752000  0.50000000  1
  Zr  Zr9  1  0.00000000  0.89248000  0.50000000  1
  Zr  Zr10  1  0.50000000  0.50000000  0.10752000  1
  Zr  Zr11  1  0.50000000  0.50000000  0.89248000  1
  H  H12  1  0.29540000  0.19260000  0.28660000  1
  H  H13  1  0.22310000  0.12540000  0.33310000  1
  H  H14  1  0.09800000  0.25130000  0.39300000  1
  H  H15  1  0.22310000  0.87460000  0.66690000  1
  H  H16  1  0.09800000  0.74870000  0.60700000  1
  H  H17  1  0.15700000  0.68230000  0.66610000  1
  H  H18  1  0.79540000  0.71340000  0.19260000  1
  H  H19  1  0.72310000  0.66690000  0.12540000  1
  H  H20  1  0.59800000  0.60700000  0.25130000  1
  H  H21  1  0.79540000  0.28660000  0.80740000  1
  H  H22  1  0.72310000  0.33310000  0.87460000  1
  H  H23  1  0.59800000  0.39300000  0.74870000  1
  H  H24  1  0.77690000  0.87460000  0.33310000  1
  H  H25  1  0.90200000  0.74870000  0.39300000  1
  H  H26  1  0.84300000  0.68230000  0.33390000  1
  H  H27  1  0.95760000  0.86860000  0.05080000  1
  H  H28  1  0.77690000  0.12540000  0.66690000  1
  H  H29  1  0.90200000  0.25130000  0.60700000  1
  H  H30  1  0.84300000  0.31770000  0.66610000  1
  H  H31  1  0.27690000  0.33310000  0.12540000  1
  H  H32  1  0.40200000  0.39300000  0.25130000  1
  H  H33  1  0.34300000  0.33390000  0.31770000  1
  H  H34  1  0.20460000  0.71340000  0.80740000  1
  H  H35  1  0.27690000  0.66690000  0.87460000  1
  H  H36  1  0.40200000  0.60700000  0.74870000  1
  H  H37  1  0.45760000  0.94920000  0.86860000  1
  H  H38  1  0.77690000  0.87460000  0.66690000  1
  H  H39  1  0.90200000  0.74870000  0.60700000  1
  H  H40  1  0.84300000  0.68230000  0.66610000  1
  H  H41  1  0.70460000  0.19260000  0.28660000  1
  H  H42  1  0.77690000  0.12540000  0.33310000  1
  H  H43  1  0.90200000  0.25130000  0.39300000  1
  H  H44  1  0.27690000  0.33310000  0.87460000  1
  H  H45  1  0.40200000  0.39300000  0.74870000  1
  H  H46  1  0.34300000  0.33390000  0.68230000  1
  H  H47  1  0.20460000  0.71340000  0.19260000  1
  H  H48  1  0.27690000  0.66690000  0.12540000  1
  H  H49  1  0.40200000  0.60700000  0.25130000  1
  H  H50  1  0.29540000  0.19260000  0.71340000  1
  H  H51  1  0.22310000  0.12540000  0.66690000  1
  H  H52  1  0.09800000  0.25130000  0.60700000  1
  H  H53  1  0.22310000  0.87460000  0.33310000  1
  H  H54  1  0.09800000  0.74870000  0.39300000  1
  H  H55  1  0.15700000  0.68230000  0.33390000  1
  H  H56  1  0.04240000  0.86860000  0.05080000  1
  H  H57  1  0.79540000  0.71340000  0.80740000  1
  H  H58  1  0.72310000  0.66690000  0.87460000  1
  H  H59  1  0.59800000  0.60700000  0.74870000  1
  H  H60  1  0.54240000  0.94920000  0.86860000  1
  H  H61  1  0.72310000  0.33310000  0.12540000  1
  H  H62  1  0.59800000  0.39300000  0.25130000  1
  H  H63  1  0.65700000  0.33390000  0.31770000  1
  H  H64  1  0.32440000  0.00000000  0.41180000  1
  H  H65  1  0.10740000  0.00000000  0.23610000  1
  H  H66  1  0.10730000  0.00000000  0.13410000  1
  H  H67  1  0.43680000  0.00000000  0.36180000  1
  H  H68  1  0.50690000  0.00000000  0.39450000  1
  H  H69  1  0.32440000  0.00000000  0.58820000  1
  H  H70  1  0.10740000  1.00000000  0.76390000  1
  H  H71  1  0.10730000  0.00000000  0.86590000  1
  H  H72  1  0.44840000  0.00000000  0.58790000  1
  H  H73  1  0.82440000  0.58820000  0.00000000  1
  H  H74  1  0.60740000  0.76390000  0.00000000  1
  H  H75  1  0.60730000  0.86590000  0.00000000  1
  H  H76  1  0.93680000  0.63820000  0.00000000  1
  H  H77  1  0.00690000  0.60550000  0.00000000  1
  H  H78  1  0.82440000  0.41180000  0.00000000  1
  H  H79  1  0.60740000  0.23610000  0.00000000  1
  H  H80  1  0.60730000  0.13410000  0.00000000  1
  H  H81  1  0.94840000  0.41210000  0.00000000  1
  H  H82  1  0.67560000  0.00000000  0.41180000  1
  H  H83  1  0.89260000  0.00000000  0.23610000  1
  H  H84  1  0.89270000  0.00000000  0.13410000  1
  H  H85  1  0.55160000  0.00000000  0.41210000  1
  H  H86  1  0.67560000  0.00000000  0.58820000  1
  H  H87  1  0.89260000  1.00000000  0.76390000  1
  H  H88  1  0.89270000  0.00000000  0.86590000  1
  H  H89  1  0.56320000  0.00000000  0.63820000  1
  H  H90  1  0.49310000  1.00000000  0.60550000  1
  H  H91  1  0.17560000  0.41180000  0.00000000  1
  H  H92  1  0.39260000  0.23610000  0.00000000  1
  H  H93  1  0.39270000  0.13410000  0.00000000  1
  H  H94  1  0.06320000  0.36180000  0.00000000  1
  H  H95  1  0.99310000  0.39450000  0.00000000  1
  H  H96  1  0.17560000  0.58820000  0.00000000  1
  H  H97  1  0.39260000  0.76390000  0.00000000  1
  H  H98  1  0.39270000  0.86590000  0.00000000  1
  H  H99  1  0.05160000  0.58790000  0.00000000  1
  H  H100  1  0.00000000  0.08800000  0.05070000  1
  H  H101  1  0.00000000  0.91200000  0.94930000  1
  H  H102  1  0.50000000  0.94930000  0.08800000  1
  H  H103  1  0.50000000  0.05070000  0.91200000  1
  H  H104  1  0.00000000  0.89760000  0.10340000  1
  H  H105  1  0.00000000  0.08800000  0.94930000  1
  H  H106  1  0.50000000  0.05070000  0.08800000  1
  H  H107  1  0.50000000  0.89660000  0.89760000  1
  C  C108  1  0.23100000  0.26170000  0.30290000  1
  C  C109  1  0.25310000  0.20460000  0.30540000  1
  C  C110  1  0.21200000  0.16550000  0.33580000  1
  C  C111  1  0.15680000  0.18190000  0.36930000  1
  C  C112  1  0.13650000  0.23900000  0.36950000  1
  C  C113  1  0.17250000  0.27860000  0.33530000  1
  C  C114  1  0.11630000  0.13750000  0.40400000  1
  C  C115  1  0.13950000  0.33790000  0.33280000  1
  C  C116  1  0.23100000  0.73830000  0.69710000  1
  C  C117  1  0.25310000  0.79540000  0.69460000  1
  C  C118  1  0.21200000  0.83450000  0.66420000  1
  C  C119  1  0.15680000  0.81810000  0.63070000  1
  C  C120  1  0.13650000  0.76100000  0.63050000  1
  C  C121  1  0.17250000  0.72140000  0.66470000  1
  C  C122  1  0.11630000  0.86250000  0.59600000  1
  C  C123  1  0.32330000  0.81770000  0.71670000  1
  C  C124  1  0.73100000  0.69710000  0.26170000  1
  C  C125  1  0.75310000  0.69460000  0.20460000  1
  C  C126  1  0.71200000  0.66420000  0.16550000  1
  C  C127  1  0.65680000  0.63070000  0.18190000  1
  C  C128  1  0.63650000  0.63050000  0.23900000  1
  C  C129  1  0.67250000  0.66470000  0.27860000  1
  C  C130  1  0.61630000  0.59600000  0.13750000  1
  C  C131  1  0.63950000  0.66720000  0.33790000  1
  C  C132  1  0.73100000  0.30290000  0.73830000  1
  C  C133  1  0.75310000  0.30540000  0.79540000  1
  C  C134  1  0.71200000  0.33580000  0.83450000  1
  C  C135  1  0.65680000  0.36930000  0.81810000  1
  C  C136  1  0.63650000  0.36950000  0.76100000  1
  C  C137  1  0.67250000  0.33530000  0.72140000  1
  C  C138  1  0.61630000  0.40400000  0.86250000  1
  C  C139  1  0.63950000  0.33280000  0.66210000  1
  C  C140  1  0.76900000  0.73830000  0.30290000  1
  C  C141  1  0.74690000  0.79540000  0.30540000  1
  C  C142  1  0.78800000  0.83450000  0.33580000  1
  C  C143  1  0.84320000  0.81810000  0.36930000  1
  C  C144  1  0.86350000  0.76100000  0.36950000  1
  C  C145  1  0.82750000  0.72140000  0.33530000  1
  C  C146  1  0.88370000  0.86250000  0.40400000  1
  C  C147  1  0.67670000  0.81770000  0.28330000  1
  C  C148  1  0.76900000  0.26170000  0.69710000  1
  C  C149  1  0.74690000  0.20460000  0.69460000  1
  C  C150  1  0.78800000  0.16550000  0.66420000  1
  C  C151  1  0.84320000  0.18190000  0.63070000  1
  C  C152  1  0.86350000  0.23900000  0.63050000  1
  C  C153  1  0.82750000  0.27860000  0.66470000  1
  C  C154  1  0.88370000  0.13750000  0.59600000  1
  C  C155  1  0.67670000  0.18230000  0.71670000  1
  C  C156  1  0.26900000  0.30290000  0.26170000  1
  C  C157  1  0.24690000  0.30540000  0.20460000  1
  C  C158  1  0.28800000  0.33580000  0.16550000  1
  C  C159  1  0.34320000  0.36930000  0.18190000  1
  C  C160  1  0.36350000  0.36950000  0.23900000  1
  C  C161  1  0.32750000  0.33530000  0.27860000  1
  C  C162  1  0.38370000  0.40400000  0.13750000  1
  C  C163  1  0.17670000  0.28330000  0.18230000  1
  C  C164  1  0.26900000  0.69710000  0.73830000  1
  C  C165  1  0.24690000  0.69460000  0.79540000  1
  C  C166  1  0.28800000  0.66420000  0.83450000  1
  C  C167  1  0.34320000  0.63070000  0.81810000  1
  C  C168  1  0.36350000  0.63050000  0.76100000  1
  C  C169  1  0.32750000  0.66470000  0.72140000  1
  C  C170  1  0.38370000  0.59600000  0.86250000  1
  C  C171  1  0.36050000  0.66720000  0.66210000  1
  C  C172  1  0.76900000  0.73830000  0.69710000  1
  C  C173  1  0.74690000  0.79540000  0.69460000  1
  C  C174  1  0.78800000  0.83450000  0.66420000  1
  C  C175  1  0.84320000  0.81810000  0.63070000  1
  C  C176  1  0.86350000  0.76100000  0.63050000  1
  C  C177  1  0.82750000  0.72140000  0.66470000  1
  C  C178  1  0.88370000  0.86250000  0.59600000  1
  C  C179  1  0.67670000  0.81770000  0.71670000  1
  C  C180  1  0.76900000  0.26170000  0.30290000  1
  C  C181  1  0.74690000  0.20460000  0.30540000  1
  C  C182  1  0.78800000  0.16550000  0.33580000  1
  C  C183  1  0.84320000  0.18190000  0.36930000  1
  C  C184  1  0.86350000  0.23900000  0.36950000  1
  C  C185  1  0.82750000  0.27860000  0.33530000  1
  C  C186  1  0.88370000  0.13750000  0.40400000  1
  C  C187  1  0.86050000  0.33790000  0.33280000  1
  C  C188  1  0.26900000  0.30290000  0.73830000  1
  C  C189  1  0.24690000  0.30540000  0.79540000  1
  C  C190  1  0.28800000  0.33580000  0.83450000  1
  C  C191  1  0.34320000  0.36930000  0.81810000  1
  C  C192  1  0.36350000  0.36950000  0.76100000  1
  C  C193  1  0.32750000  0.33530000  0.72140000  1
  C  C194  1  0.38370000  0.40400000  0.86250000  1
  C  C195  1  0.17670000  0.28330000  0.81770000  1
  C  C196  1  0.26900000  0.69710000  0.26170000  1
  C  C197  1  0.24690000  0.69460000  0.20460000  1
  C  C198  1  0.28800000  0.66420000  0.16550000  1
  C  C199  1  0.34320000  0.63070000  0.18190000  1
  C  C200  1  0.36350000  0.63050000  0.23900000  1
  C  C201  1  0.32750000  0.66470000  0.27860000  1
  C  C202  1  0.38370000  0.59600000  0.13750000  1
  C  C203  1  0.36050000  0.66720000  0.33790000  1
  C  C204  1  0.23100000  0.26170000  0.69710000  1
  C  C205  1  0.25310000  0.20460000  0.69460000  1
  C  C206  1  0.21200000  0.16550000  0.66420000  1
  C  C207  1  0.15680000  0.18190000  0.63070000  1
  C  C208  1  0.13650000  0.23900000  0.63050000  1
  C  C209  1  0.17250000  0.27860000  0.66470000  1
  C  C210  1  0.11630000  0.13750000  0.59600000  1
  C  C211  1  0.13950000  0.33790000  0.66720000  1
  C  C212  1  0.23100000  0.73830000  0.30290000  1
  C  C213  1  0.25310000  0.79540000  0.30540000  1
  C  C214  1  0.21200000  0.83450000  0.33580000  1
  C  C215  1  0.15680000  0.81810000  0.36930000  1
  C  C216  1  0.13650000  0.76100000  0.36950000  1
  C  C217  1  0.17250000  0.72140000  0.33530000  1
  C  C218  1  0.11630000  0.86250000  0.40400000  1
  C  C219  1  0.32330000  0.81770000  0.28330000  1
  C  C220  1  0.73100000  0.69710000  0.73830000  1
  C  C221  1  0.75310000  0.69460000  0.79540000  1
  C  C222  1  0.71200000  0.66420000  0.83450000  1
  C  C223  1  0.65680000  0.63070000  0.81810000  1
  C  C224  1  0.63650000  0.63050000  0.76100000  1
  C  C225  1  0.67250000  0.66470000  0.72140000  1
  C  C226  1  0.61630000  0.59600000  0.86250000  1
  C  C227  1  0.63950000  0.66720000  0.66210000  1
  C  C228  1  0.73100000  0.30290000  0.26170000  1
  C  C229  1  0.75310000  0.30540000  0.20460000  1
  C  C230  1  0.71200000  0.33580000  0.16550000  1
  C  C231  1  0.65680000  0.36930000  0.18190000  1
  C  C232  1  0.63650000  0.36950000  0.23900000  1
  C  C233  1  0.67250000  0.33530000  0.27860000  1
  C  C234  1  0.61630000  0.40400000  0.13750000  1
  C  C235  1  0.82330000  0.28330000  0.18230000  1
  C  C236  1  0.34960000  0.00000000  0.44751000  1
  C  C237  1  0.42320000  0.00000000  0.44775000  1
  C  C238  1  0.06390000  0.00000000  0.21550000  1
  C  C239  1  0.06380000  1.00000000  0.15480000  1
  C  C240  1  0.34960000  0.00000000  0.55249000  1
  C  C241  1  0.42320000  0.00000000  0.55225000  1
  C  C242  1  0.06390000  0.00000000  0.78450000  1
  C  C243  1  0.06380000  1.00000000  0.84520000  1
  C  C244  1  0.84960000  0.55249000  0.00000000  1
  C  C245  1  0.92320000  0.55225000  0.00000000  1
  C  C246  1  0.56390000  0.78450000  0.00000000  1
  C  C247  1  0.56380000  0.84520000  0.00000000  1
  C  C248  1  0.84960000  0.44751000  0.00000000  1
  C  C249  1  0.92320000  0.44775000  0.00000000  1
  C  C250  1  0.56390000  0.21550000  0.00000000  1
  C  C251  1  0.56380000  0.15480000  0.00000000  1
  C  C252  1  0.65040000  0.00000000  0.44751000  1
  C  C253  1  0.57680000  0.00000000  0.44775000  1
  C  C254  1  0.93610000  0.00000000  0.21550000  1
  C  C255  1  0.93620000  1.00000000  0.15480000  1
  C  C256  1  0.65040000  0.00000000  0.55249000  1
  C  C257  1  0.57680000  0.00000000  0.55225000  1
  C  C258  1  0.93610000  0.00000000  0.78450000  1
  C  C259  1  0.93620000  1.00000000  0.84520000  1
  C  C260  1  0.15040000  0.44751000  0.00000000  1
  C  C261  1  0.07680000  0.44775000  0.00000000  1
  C  C262  1  0.43610000  0.21550000  0.00000000  1
  C  C263  1  0.43620000  0.15480000  0.00000000  1
  C  C264  1  0.15040000  0.55249000  0.00000000  1
  C  C265  1  0.07680000  0.55225000  0.00000000  1
  C  C266  1  0.43610000  0.78450000  0.00000000  1
  C  C267  1  0.43620000  0.84520000  0.00000000  1
  C  C268  1  0.00000000  0.05232000  0.03014000  1
  C  C269  1  0.00000000  0.94768000  0.96986000  1
  C  C270  1  0.50000000  0.96986000  0.05232000  1
  C  C271  1  0.50000000  0.03014000  0.94768000  1
  C  C272  1  0.00000000  0.94768000  0.03014000  1
  C  C273  1  0.00000000  0.89070000  0.06150000  1
  C  C274  1  0.00000000  0.05232000  0.96986000  1
  C  C275  1  0.50000000  0.03014000  0.05232000  1
  C  C276  1  0.50000000  0.96986000  0.94768000  1
  C  C277  1  0.50000000  0.93850000  0.89070000  1
  C  C278  1  0.23370000  0.00000000  0.50000000  1
  C  C279  1  0.31270000  0.00000000  0.50000000  1
  C  C280  1  0.46040000  0.00000000  0.50000000  1
  C  C281  1  0.73370000  0.50000000  0.00000000  1
  C  C282  1  0.81270000  0.50000000  0.00000000  1
  C  C283  1  0.96040000  0.50000000  0.00000000  1
  C  C284  1  0.76630000  0.00000000  0.50000000  1
  C  C285  1  0.68730000  0.00000000  0.50000000  1
  C  C286  1  0.53960000  0.00000000  0.50000000  1
  C  C287  1  0.26630000  0.50000000  0.00000000  1
  C  C288  1  0.18730000  0.50000000  0.00000000  1
  C  C289  1  0.03960000  0.50000000  0.00000000  1
  C  C290  1  0.00000000  0.00000000  0.30990000  1
  C  C291  1  0.00000000  0.00000000  0.24540000  1
  C  C292  1  0.00000000  1.00000000  0.12490000  1
  C  C293  1  0.00000000  0.00000000  0.06040000  1
  C  C294  1  0.00000000  1.00000000  0.69010000  1
  C  C295  1  0.00000000  0.00000000  0.75460000  1
  C  C296  1  0.00000000  1.00000000  0.87510000  1
  C  C297  1  0.00000000  0.00000000  0.93960000  1
  C  C298  1  0.50000000  0.69010000  0.00000000  1
  C  C299  1  0.50000000  0.75460000  0.00000000  1
  C  C300  1  0.50000000  0.87510000  0.00000000  1
  C  C301  1  0.50000000  0.93960000  0.00000000  1
  C  C302  1  0.50000000  0.30990000  0.00000000  1
  C  C303  1  0.50000000  0.24540000  0.00000000  1
  C  C304  1  0.50000000  0.12490000  0.00000000  1
  C  C305  1  0.50000000  0.06040000  0.00000000  1
  N  N306  1  0.46020000  1.00000000  0.39470000  1
  N  N307  1  0.96020000  0.60530000  0.00000000  1
  N  N308  1  0.53980000  1.00000000  0.60530000  1
  N  N309  1  0.03980000  0.39470000  0.00000000  1
  O  O310  1  0.13120000  0.08534000  0.39172000  1
  O  O311  1  0.07177000  0.15645000  0.44129000  1
  O  O312  1  0.13120000  0.91466000  0.60828000  1
  O  O313  1  0.07177000  0.84355000  0.55871000  1
  O  O314  1  0.63120000  0.60828000  0.08534000  1
  O  O315  1  0.57177000  0.55871000  0.15645000  1
  O  O316  1  0.63120000  0.39172000  0.91466000  1
  O  O317  1  0.57177000  0.44129000  0.84355000  1
  O  O318  1  0.86880000  0.91466000  0.39172000  1
  O  O319  1  0.92823000  0.84355000  0.44129000  1
  O  O320  1  0.86880000  0.08534000  0.60828000  1
  O  O321  1  0.92823000  0.15645000  0.55871000  1
  O  O322  1  0.36880000  0.39172000  0.08534000  1
  O  O323  1  0.42823000  0.44129000  0.15645000  1
  O  O324  1  0.36880000  0.60828000  0.91466000  1
  O  O325  1  0.42823000  0.55871000  0.84355000  1
  O  O326  1  0.86880000  0.91466000  0.60828000  1
  O  O327  1  0.92823000  0.84355000  0.55871000  1
  O  O328  1  0.86880000  0.08534000  0.39172000  1
  O  O329  1  0.92823000  0.15645000  0.44129000  1
  O  O330  1  0.36880000  0.39172000  0.91466000  1
  O  O331  1  0.42823000  0.44129000  0.84355000  1
  O  O332  1  0.36880000  0.60828000  0.08534000  1
  O  O333  1  0.42823000  0.55871000  0.15645000  1
  O  O334  1  0.13120000  0.08534000  0.60828000  1
  O  O335  1  0.07177000  0.15645000  0.55871000  1
  O  O336  1  0.13120000  0.91466000  0.39172000  1
  O  O337  1  0.07177000  0.84355000  0.44129000  1
  O  O338  1  0.63120000  0.60828000  0.91466000  1
  O  O339  1  0.57177000  0.55871000  0.84355000  1
  O  O340  1  0.63120000  0.39172000  0.08534000  1
  O  O341  1  0.57177000  0.44129000  0.15645000  1
  O  O342  1  0.20610000  1.00000000  0.44030000  1
  O  O343  1  0.06290000  0.00000000  0.33180000  1
  O  O344  1  0.20610000  0.00000000  0.55970000  1
  O  O345  1  0.06290000  0.00000000  0.66820000  1
  O  O346  1  0.70610000  0.55970000  0.00000000  1
  O  O347  1  0.56290000  0.66820000  0.00000000  1
  O  O348  1  0.70610000  0.44030000  0.00000000  1
  O  O349  1  0.56290000  0.33180000  0.00000000  1
  O  O350  1  0.79390000  1.00000000  0.44030000  1
  O  O351  1  0.93710000  0.00000000  0.33180000  1
  O  O352  1  0.79390000  0.00000000  0.55970000  1
  O  O353  1  0.93710000  0.00000000  0.66820000  1
  O  O354  1  0.29390000  0.44030000  0.00000000  1
  O  O355  1  0.43710000  0.33180000  0.00000000  1
  O  O356  1  0.29390000  0.55970000  0.00000000  1
  O  O357  1  0.43710000  0.66820000  0.00000000  1
  O  O358  1  0.00000000  0.05290000  0.42580000  1
  O  O359  1  0.00000000  0.94710000  0.57420000  1
  O  O360  1  0.50000000  0.57420000  0.05290000  1
  O  O361  1  0.50000000  0.42580000  0.94710000  1
  O  O362  1  0.00000000  0.94710000  0.42580000  1
  O  O363  1  0.00000000  0.05290000  0.57420000  1
  O  O364  1  0.50000000  0.42580000  0.05290000  1
  O  O365  1  0.50000000  0.57420000  0.94710000  1
  O  O366  1  0.09210000  0.05290000  0.50000000  1
  O  O367  1  0.09210000  0.94710000  0.50000000  1
  O  O368  1  0.59210000  0.50000000  0.05290000  1
  O  O369  1  0.59210000  0.50000000  0.94710000  1
  O  O370  1  0.90790000  0.94710000  0.50000000  1
  O  O371  1  0.90790000  0.05290000  0.50000000  1
  O  O372  1  0.40790000  0.50000000  0.05290000  1
  O  O373  1  0.40790000  0.50000000  0.94710000  1
  F  F374  1  0.10890000  0.35160000  0.27860000  1
  F  F375  1  0.08640000  0.35120000  0.36990000  1
  F  F376  1  0.18660000  0.38370000  0.33990000  1
  F  F377  1  0.33070000  0.82210000  0.77700000  1
  F  F378  1  0.38470000  0.78620000  0.70400000  1
  F  F379  1  0.34480000  0.87300000  0.70050000  1
  F  F380  1  0.60890000  0.72140000  0.35160000  1
  F  F381  1  0.58640000  0.63010000  0.35120000  1
  F  F382  1  0.68660000  0.66010000  0.38370000  1
  F  F383  1  0.60890000  0.27860000  0.64840000  1
  F  F384  1  0.58640000  0.36990000  0.64880000  1
  F  F385  1  0.68660000  0.33990000  0.61630000  1
  F  F386  1  0.66930000  0.82210000  0.22300000  1
  F  F387  1  0.61530000  0.78620000  0.29600000  1
  F  F388  1  0.65520000  0.87300000  0.29950000  1
  F  F389  1  0.66930000  0.17790000  0.77700000  1
  F  F390  1  0.61530000  0.21380000  0.70400000  1
  F  F391  1  0.65520000  0.12700000  0.70050000  1
  F  F392  1  0.16930000  0.22300000  0.17790000  1
  F  F393  1  0.11530000  0.29600000  0.21380000  1
  F  F394  1  0.15520000  0.29950000  0.12700000  1
  F  F395  1  0.39110000  0.72140000  0.64840000  1
  F  F396  1  0.41360000  0.63010000  0.64880000  1
  F  F397  1  0.31340000  0.66010000  0.61630000  1
  F  F398  1  0.66930000  0.82210000  0.77700000  1
  F  F399  1  0.61530000  0.78620000  0.70400000  1
  F  F400  1  0.65520000  0.87300000  0.70050000  1
  F  F401  1  0.89110000  0.35160000  0.27860000  1
  F  F402  1  0.91360000  0.35120000  0.36990000  1
  F  F403  1  0.81340000  0.38370000  0.33990000  1
  F  F404  1  0.16930000  0.22300000  0.82210000  1
  F  F405  1  0.11530000  0.29600000  0.78620000  1
  F  F406  1  0.15520000  0.29950000  0.87300000  1
  F  F407  1  0.39110000  0.72140000  0.35160000  1
  F  F408  1  0.41360000  0.63010000  0.35120000  1
  F  F409  1  0.31340000  0.66010000  0.38370000  1
  F  F410  1  0.10890000  0.35160000  0.72140000  1
  F  F411  1  0.08640000  0.35120000  0.63010000  1
  F  F412  1  0.18660000  0.38370000  0.66010000  1
  F  F413  1  0.33070000  0.82210000  0.22300000  1
  F  F414  1  0.38470000  0.78620000  0.29600000  1
  F  F415  1  0.34480000  0.87300000  0.29950000  1
  F  F416  1  0.60890000  0.72140000  0.64840000  1
  F  F417  1  0.58640000  0.63010000  0.64880000  1
  F  F418  1  0.68660000  0.66010000  0.61630000  1
  F  F419  1  0.83070000  0.22300000  0.17790000  1
  F  F420  1  0.88470000  0.29600000  0.21380000  1
  F  F421  1  0.84480000  0.29950000  0.12700000  1
