# generated using pymatgen
data_Zr6H46C99(O17F12)2
_symmetry_space_group_name_H-M   'P 1'
_cell_length_a   18.85990000
_cell_length_b   23.09780000
_cell_length_c   23.09780000
_cell_angle_alpha   90.00000000
_cell_angle_beta   90.00000000
_cell_angle_gamma   90.00000000
_symmetry_Int_Tables_number   1
_chemical_formula_structural   Zr6H46C99(O17F12)2
_chemical_formula_sum   'Zr12 H92 C198 O68 F48'
_cell_volume   10061.91441005
_cell_formula_units_Z   2
loop_
 _symmetry_equiv_pos_site_id
 _symmetry_equiv_pos_as_xyz
  1  'x, y, z'
loop_
 _atom_site_type_symbol
 _atom_site_label
 _atom_site_symmetry_multiplicity
 _atom_site_fract_x
 _atom_site_fract_y
 _atom_site_fract_z
 _atom_site_occupancy
  Zr  Zr0  1  0.00000000  0.10801000  0.50000000  1
  Zr  Zr1  1  0.00000000  0.89199000  0.50000000  1
  Zr  Zr2  1  0.50000000  0.50000000  0.10801000  1
  Zr  Zr3  1  0.50000000  0.50000000  0.89199000  1
  Zr  Zr4  1  0.09239000  0.00000000  0.42452000  1
  Zr  Zr5  1  0.09239000  0.00000000  0.57548000  1
  Zr  Zr6  1  0.59239000  0.57548000  0.00000000  1
  Zr  Zr7  1  0.59239000  0.42452000  0.00000000  1
  Zr  Zr8  1  0.90761000  0.00000000  0.42452000  1
  Zr  Zr9  1  0.90761000  0.00000000  0.57548000  1
  Zr  Zr10  1  0.40761000  0.42452000  0.00000000  1
  Zr  Zr11  1  0.40761000  0.57548000  0.00000000  1
  H  H12  1  0.09980000  0.24950000  0.39300000  1
  H  H13  1  0.22070000  0.12370000  0.33160000  1
  H  H14  1  0.29600000  0.19160000  0.28560000  1
  H  H15  1  0.04780000  0.07880000  0.05050000  1
  H  H16  1  0.09980000  0.75050000  0.60700000  1
  H  H17  1  0.22070000  0.87630000  0.66840000  1
  H  H18  1  0.29600000  0.80840000  0.71440000  1
  H  H19  1  0.59980000  0.60700000  0.24950000  1
  H  H20  1  0.72070000  0.66840000  0.12370000  1
  H  H21  1  0.65780000  0.66750000  0.31600000  1
  H  H22  1  0.59980000  0.39300000  0.75050000  1
  H  H23  1  0.72070000  0.33160000  0.87630000  1
  H  H24  1  0.61090000  0.06130000  0.90470000  1
  H  H25  1  0.54310000  0.04460000  0.86660000  1
  H  H26  1  0.54310000  0.10290000  0.90400000  1
  H  H27  1  0.65780000  0.33250000  0.68400000  1
  H  H28  1  0.90020000  0.75050000  0.39300000  1
  H  H29  1  0.77930000  0.87630000  0.33160000  1
  H  H30  1  0.70400000  0.80840000  0.28560000  1
  H  H31  1  0.95220000  0.92120000  0.05050000  1
  H  H32  1  0.90020000  0.24950000  0.60700000  1
  H  H33  1  0.77930000  0.12370000  0.66840000  1
  H  H34  1  0.70400000  0.19160000  0.71440000  1
  H  H35  1  0.40020000  0.39300000  0.24950000  1
  H  H36  1  0.27930000  0.33160000  0.12370000  1
  H  H37  1  0.45220000  0.05050000  0.07880000  1
  H  H38  1  0.34220000  0.33250000  0.31600000  1
  H  H39  1  0.40020000  0.60700000  0.75050000  1
  H  H40  1  0.27930000  0.66840000  0.87630000  1
  H  H41  1  0.20400000  0.71440000  0.80840000  1
  H  H42  1  0.90020000  0.75050000  0.60700000  1
  H  H43  1  0.77930000  0.87630000  0.66840000  1
  H  H44  1  0.88910000  0.90470000  0.93870000  1
  H  H45  1  0.95690000  0.86660000  0.95540000  1
  H  H46  1  0.95690000  0.90400000  0.89710000  1
  H  H47  1  0.84220000  0.68400000  0.66750000  1
  H  H48  1  0.90020000  0.24950000  0.39300000  1
  H  H49  1  0.77930000  0.12370000  0.33160000  1
  H  H50  1  0.84220000  0.31600000  0.33250000  1
  H  H51  1  0.40020000  0.39300000  0.75050000  1
  H  H52  1  0.27930000  0.33160000  0.87630000  1
  H  H53  1  0.20400000  0.28560000  0.80840000  1
  H  H54  1  0.40020000  0.60700000  0.24950000  1
  H  H55  1  0.27930000  0.66840000  0.12370000  1
  H  H56  1  0.20400000  0.71440000  0.19160000  1
  H  H57  1  0.45220000  0.94950000  0.07880000  1
  H  H58  1  0.09980000  0.24950000  0.60700000  1
  H  H59  1  0.22070000  0.12370000  0.66840000  1
  H  H60  1  0.04780000  0.07880000  0.94950000  1
  H  H61  1  0.15780000  0.31600000  0.66750000  1
  H  H62  1  0.09980000  0.75050000  0.39300000  1
  H  H63  1  0.22070000  0.87630000  0.33160000  1
  H  H64  1  0.15780000  0.68400000  0.33250000  1
  H  H65  1  0.59980000  0.60700000  0.75050000  1
  H  H66  1  0.72070000  0.66840000  0.87630000  1
  H  H67  1  0.79600000  0.71440000  0.80840000  1
  H  H68  1  0.54780000  0.94950000  0.92120000  1
  H  H69  1  0.59980000  0.39300000  0.24950000  1
  H  H70  1  0.72070000  0.33160000  0.12370000  1
  H  H71  1  0.79600000  0.28560000  0.19160000  1
  H  H72  1  0.43070000  0.00000000  0.63020000  1
  H  H73  1  0.32460000  0.00000000  0.58790000  1
  H  H74  1  0.10760000  0.00000000  0.23550000  1
  H  H75  1  0.10750000  0.00000000  0.13380000  1
  H  H76  1  0.32460000  0.00000000  0.41210000  1
  H  H77  1  0.10760000  1.00000000  0.76450000  1
  H  H78  1  0.10750000  0.00000000  0.86620000  1
  H  H79  1  0.44900000  0.00000000  0.41230000  1
  H  H80  1  0.82460000  0.41210000  0.00000000  1
  H  H81  1  0.60760000  0.76450000  0.00000000  1
  H  H82  1  0.60750000  0.86620000  0.00000000  1
  H  H83  1  0.94900000  0.41230000  0.00000000  1
  H  H84  1  0.93070000  0.63020000  0.00000000  1
  H  H85  1  0.82460000  0.58790000  0.00000000  1
  H  H86  1  0.60760000  0.23550000  0.00000000  1
  H  H87  1  0.60750000  0.13380000  0.00000000  1
  H  H88  1  0.67540000  0.00000000  0.58790000  1
  H  H89  1  0.89240000  0.00000000  0.23550000  1
  H  H90  1  0.89250000  0.00000000  0.13380000  1
  H  H91  1  0.55100000  0.00000000  0.58770000  1
  H  H92  1  0.56930000  0.00000000  0.36980000  1
  H  H93  1  0.67540000  0.00000000  0.41210000  1
  H  H94  1  0.89240000  1.00000000  0.76450000  1
  H  H95  1  0.89250000  0.00000000  0.86620000  1
  H  H96  1  0.17540000  0.58790000  0.00000000  1
  H  H97  1  0.39240000  0.23550000  0.00000000  1
  H  H98  1  0.39250000  0.13380000  0.00000000  1
  H  H99  1  0.05100000  0.58770000  0.00000000  1
  H  H100  1  0.06930000  0.36980000  0.00000000  1
  H  H101  1  0.17540000  0.41210000  0.00000000  1
  H  H102  1  0.39240000  0.76450000  0.00000000  1
  H  H103  1  0.39250000  0.86620000  0.00000000  1
  C  C104  1  0.23130000  0.26060000  0.30110000  1
  C  C105  1  0.17370000  0.27700000  0.33390000  1
  C  C106  1  0.13810000  0.23710000  0.36940000  1
  C  C107  1  0.15840000  0.18120000  0.36990000  1
  C  C108  1  0.21130000  0.16390000  0.33530000  1
  C  C109  1  0.25350000  0.20370000  0.30410000  1
  C  C110  1  0.11920000  0.13600000  0.40280000  1
  C  C111  1  0.14150000  0.33630000  0.32910000  1
  C  C112  1  0.02838000  0.04677000  0.03023000  1
  C  C113  1  0.23130000  0.73940000  0.69890000  1
  C  C114  1  0.17370000  0.72300000  0.66610000  1
  C  C115  1  0.13810000  0.76290000  0.63060000  1
  C  C116  1  0.15840000  0.81880000  0.63010000  1
  C  C117  1  0.21130000  0.83610000  0.66470000  1
  C  C118  1  0.25350000  0.79630000  0.69590000  1
  C  C119  1  0.11920000  0.86400000  0.59720000  1
  C  C120  1  0.14150000  0.66370000  0.67090000  1
  C  C121  1  0.73130000  0.69890000  0.26060000  1
  C  C122  1  0.67370000  0.66610000  0.27700000  1
  C  C123  1  0.63810000  0.63060000  0.23710000  1
  C  C124  1  0.65840000  0.63010000  0.18120000  1
  C  C125  1  0.71130000  0.66470000  0.16390000  1
  C  C126  1  0.75350000  0.69590000  0.20370000  1
  C  C127  1  0.61920000  0.59720000  0.13600000  1
  C  C128  1  0.82170000  0.72210000  0.18330000  1
  C  C129  1  0.73130000  0.30110000  0.73940000  1
  C  C130  1  0.67370000  0.33390000  0.72300000  1
  C  C131  1  0.63810000  0.36940000  0.76290000  1
  C  C132  1  0.65840000  0.36990000  0.81880000  1
  C  C133  1  0.71130000  0.33530000  0.83610000  1
  C  C134  1  0.75350000  0.30410000  0.79630000  1
  C  C135  1  0.61920000  0.40280000  0.86400000  1
  C  C136  1  0.52838000  0.03023000  0.95323000  1
  C  C137  1  0.55901000  0.06255000  0.90276000  1
  C  C138  1  0.82170000  0.27790000  0.81670000  1
  C  C139  1  0.76870000  0.73940000  0.30110000  1
  C  C140  1  0.82630000  0.72300000  0.33390000  1
  C  C141  1  0.86190000  0.76290000  0.36940000  1
  C  C142  1  0.84160000  0.81880000  0.36990000  1
  C  C143  1  0.78870000  0.83610000  0.33530000  1
  C  C144  1  0.74650000  0.79630000  0.30410000  1
  C  C145  1  0.88080000  0.86400000  0.40280000  1
  C  C146  1  0.85850000  0.66370000  0.32910000  1
  C  C147  1  0.97162000  0.95323000  0.03023000  1
  C  C148  1  0.76870000  0.26060000  0.69890000  1
  C  C149  1  0.82630000  0.27700000  0.66610000  1
  C  C150  1  0.86190000  0.23710000  0.63060000  1
  C  C151  1  0.84160000  0.18120000  0.63010000  1
  C  C152  1  0.78870000  0.16390000  0.66470000  1
  C  C153  1  0.74650000  0.20370000  0.69590000  1
  C  C154  1  0.88080000  0.13600000  0.59720000  1
  C  C155  1  0.85850000  0.33630000  0.67090000  1
  C  C156  1  0.26870000  0.30110000  0.26060000  1
  C  C157  1  0.32630000  0.33390000  0.27700000  1
  C  C158  1  0.36190000  0.36940000  0.23710000  1
  C  C159  1  0.34160000  0.36990000  0.18120000  1
  C  C160  1  0.28870000  0.33530000  0.16390000  1
  C  C161  1  0.24650000  0.30410000  0.20370000  1
  C  C162  1  0.38080000  0.40280000  0.13600000  1
  C  C163  1  0.47162000  0.03023000  0.04677000  1
  C  C164  1  0.17830000  0.27790000  0.18330000  1
  C  C165  1  0.26870000  0.69890000  0.73940000  1
  C  C166  1  0.32630000  0.66610000  0.72300000  1
  C  C167  1  0.36190000  0.63060000  0.76290000  1
  C  C168  1  0.34160000  0.63010000  0.81880000  1
  C  C169  1  0.28870000  0.66470000  0.83610000  1
  C  C170  1  0.24650000  0.69590000  0.79630000  1
  C  C171  1  0.38080000  0.59720000  0.86400000  1
  C  C172  1  0.35850000  0.67090000  0.66370000  1
  C  C173  1  0.76870000  0.73940000  0.69890000  1
  C  C174  1  0.82630000  0.72300000  0.66610000  1
  C  C175  1  0.86190000  0.76290000  0.63060000  1
  C  C176  1  0.84160000  0.81880000  0.63010000  1
  C  C177  1  0.78870000  0.83610000  0.66470000  1
  C  C178  1  0.74650000  0.79630000  0.69590000  1
  C  C179  1  0.88080000  0.86400000  0.59720000  1
  C  C180  1  0.97162000  0.95323000  0.96977000  1
  C  C181  1  0.94099000  0.90276000  0.93745000  1
  C  C182  1  0.67830000  0.81670000  0.72210000  1
  C  C183  1  0.76870000  0.26060000  0.30110000  1
  C  C184  1  0.82630000  0.27700000  0.33390000  1
  C  C185  1  0.86190000  0.23710000  0.36940000  1
  C  C186  1  0.84160000  0.18120000  0.36990000  1
  C  C187  1  0.78870000  0.16390000  0.33530000  1
  C  C188  1  0.74650000  0.20370000  0.30410000  1
  C  C189  1  0.88080000  0.13600000  0.40280000  1
  C  C190  1  0.67830000  0.18330000  0.27790000  1
  C  C191  1  0.26870000  0.30110000  0.73940000  1
  C  C192  1  0.32630000  0.33390000  0.72300000  1
  C  C193  1  0.36190000  0.36940000  0.76290000  1
  C  C194  1  0.34160000  0.36990000  0.81880000  1
  C  C195  1  0.28870000  0.33530000  0.83610000  1
  C  C196  1  0.24650000  0.30410000  0.79630000  1
  C  C197  1  0.38080000  0.40280000  0.86400000  1
  C  C198  1  0.35850000  0.32910000  0.66370000  1
  C  C199  1  0.26870000  0.69890000  0.26060000  1
  C  C200  1  0.32630000  0.66610000  0.27700000  1
  C  C201  1  0.36190000  0.63060000  0.23710000  1
  C  C202  1  0.34160000  0.63010000  0.18120000  1
  C  C203  1  0.28870000  0.66470000  0.16390000  1
  C  C204  1  0.24650000  0.69590000  0.20370000  1
  C  C205  1  0.38080000  0.59720000  0.13600000  1
  C  C206  1  0.35850000  0.67090000  0.33630000  1
  C  C207  1  0.47162000  0.96977000  0.04677000  1
  C  C208  1  0.23130000  0.26060000  0.69890000  1
  C  C209  1  0.17370000  0.27700000  0.66610000  1
  C  C210  1  0.13810000  0.23710000  0.63060000  1
  C  C211  1  0.15840000  0.18120000  0.63010000  1
  C  C212  1  0.21130000  0.16390000  0.66470000  1
  C  C213  1  0.25350000  0.20370000  0.69590000  1
  C  C214  1  0.11920000  0.13600000  0.59720000  1
  C  C215  1  0.02838000  0.04677000  0.96977000  1
  C  C216  1  0.32170000  0.18330000  0.72210000  1
  C  C217  1  0.23130000  0.73940000  0.30110000  1
  C  C218  1  0.17370000  0.72300000  0.33390000  1
  C  C219  1  0.13810000  0.76290000  0.36940000  1
  C  C220  1  0.15840000  0.81880000  0.36990000  1
  C  C221  1  0.21130000  0.83610000  0.33530000  1
  C  C222  1  0.25350000  0.79630000  0.30410000  1
  C  C223  1  0.11920000  0.86400000  0.40280000  1
  C  C224  1  0.32170000  0.81670000  0.27790000  1
  C  C225  1  0.73130000  0.69890000  0.73940000  1
  C  C226  1  0.67370000  0.66610000  0.72300000  1
  C  C227  1  0.63810000  0.63060000  0.76290000  1
  C  C228  1  0.65840000  0.63010000  0.81880000  1
  C  C229  1  0.71130000  0.66470000  0.83610000  1
  C  C230  1  0.75350000  0.69590000  0.79630000  1
  C  C231  1  0.61920000  0.59720000  0.86400000  1
  C  C232  1  0.64150000  0.67090000  0.66370000  1
  C  C233  1  0.52838000  0.96977000  0.95323000  1
  C  C234  1  0.73130000  0.30110000  0.26060000  1
  C  C235  1  0.67370000  0.33390000  0.27700000  1
  C  C236  1  0.63810000  0.36940000  0.23710000  1
  C  C237  1  0.65840000  0.36990000  0.18120000  1
  C  C238  1  0.71130000  0.33530000  0.16390000  1
  C  C239  1  0.75350000  0.30410000  0.20370000  1
  C  C240  1  0.61920000  0.40280000  0.13600000  1
  C  C241  1  0.64150000  0.32910000  0.33630000  1
  C  C242  1  0.34970000  0.00000000  0.55225000  1
  C  C243  1  0.42370000  1.00000000  0.55213000  1
  C  C244  1  0.06400000  0.00000000  0.21490000  1
  C  C245  1  0.06390000  0.00000000  0.15440000  1
  C  C246  1  0.34970000  0.00000000  0.44775000  1
  C  C247  1  0.42370000  0.00000000  0.44787000  1
  C  C248  1  0.06400000  0.00000000  0.78510000  1
  C  C249  1  0.06390000  0.00000000  0.84560000  1
  C  C250  1  0.84970000  0.44775000  0.00000000  1
  C  C251  1  0.92370000  0.44787000  0.00000000  1
  C  C252  1  0.56400000  0.78510000  0.00000000  1
  C  C253  1  0.56390000  0.84560000  0.00000000  1
  C  C254  1  0.84970000  0.55225000  0.00000000  1
  C  C255  1  0.92370000  0.55213000  0.00000000  1
  C  C256  1  0.56400000  0.21490000  0.00000000  1
  C  C257  1  0.56390000  0.15440000  0.00000000  1
  C  C258  1  0.65030000  0.00000000  0.55225000  1
  C  C259  1  0.57630000  1.00000000  0.55213000  1
  C  C260  1  0.93600000  0.00000000  0.21490000  1
  C  C261  1  0.93610000  0.00000000  0.15440000  1
  C  C262  1  0.65030000  0.00000000  0.44775000  1
  C  C263  1  0.57630000  0.00000000  0.44787000  1
  C  C264  1  0.93600000  0.00000000  0.78510000  1
  C  C265  1  0.93610000  0.00000000  0.84560000  1
  C  C266  1  0.15030000  0.55225000  0.00000000  1
  C  C267  1  0.07630000  0.55213000  0.00000000  1
  C  C268  1  0.43600000  0.21490000  0.00000000  1
  C  C269  1  0.43610000  0.15440000  0.00000000  1
  C  C270  1  0.15030000  0.44775000  0.00000000  1
  C  C271  1  0.07630000  0.44787000  0.00000000  1
  C  C272  1  0.43600000  0.78510000  0.00000000  1
  C  C273  1  0.43610000  0.84560000  0.00000000  1
  C  C274  1  0.23220000  0.00000000  0.50000000  1
  C  C275  1  0.31280000  0.00000000  0.50000000  1
  C  C276  1  0.46050000  0.00000000  0.50000000  1
  C  C277  1  0.73220000  0.50000000  0.00000000  1
  C  C278  1  0.81280000  0.50000000  0.00000000  1
  C  C279  1  0.96050000  0.50000000  0.00000000  1
  C  C280  1  0.76780000  0.00000000  0.50000000  1
  C  C281  1  0.68720000  0.00000000  0.50000000  1
  C  C282  1  0.53950000  0.00000000  0.50000000  1
  C  C283  1  0.26780000  0.50000000  0.00000000  1
  C  C284  1  0.18720000  0.50000000  0.00000000  1
  C  C285  1  0.03950000  0.50000000  0.00000000  1
  C  C286  1  0.00000000  0.00000000  0.30980000  1
  C  C287  1  0.00000000  0.00000000  0.24500000  1
  C  C288  1  0.00000000  0.00000000  0.12460000  1
  C  C289  1  0.00000000  0.00000000  0.06023000  1
  C  C290  1  0.00000000  0.00000000  0.69020000  1
  C  C291  1  0.00000000  0.00000000  0.75500000  1
  C  C292  1  0.00000000  0.00000000  0.87540000  1
  C  C293  1  0.00000000  0.00000000  0.93977000  1
  C  C294  1  0.50000000  0.69020000  0.00000000  1
  C  C295  1  0.50000000  0.75500000  0.00000000  1
  C  C296  1  0.50000000  0.87540000  0.00000000  1
  C  C297  1  0.50000000  0.93977000  0.00000000  1
  C  C298  1  0.50000000  0.30980000  0.00000000  1
  C  C299  1  0.50000000  0.24500000  0.00000000  1
  C  C300  1  0.50000000  0.12460000  0.00000000  1
  C  C301  1  0.50000000  0.06023000  0.00000000  1
  O  O302  1  0.13440000  0.08280000  0.39090000  1
  O  O303  1  0.07210000  0.15620000  0.44120000  1
  O  O304  1  0.13440000  0.91720000  0.60910000  1
  O  O305  1  0.07210000  0.84380000  0.55880000  1
  O  O306  1  0.63440000  0.60910000  0.08280000  1
  O  O307  1  0.57210000  0.55880000  0.15620000  1
  O  O308  1  0.63440000  0.39090000  0.91720000  1
  O  O309  1  0.57210000  0.44120000  0.84380000  1
  O  O310  1  0.86560000  0.91720000  0.39090000  1
  O  O311  1  0.92790000  0.84380000  0.44120000  1
  O  O312  1  0.86560000  0.08280000  0.60910000  1
  O  O313  1  0.92790000  0.15620000  0.55880000  1
  O  O314  1  0.36560000  0.39090000  0.08280000  1
  O  O315  1  0.42790000  0.44120000  0.15620000  1
  O  O316  1  0.36560000  0.60910000  0.91720000  1
  O  O317  1  0.42790000  0.55880000  0.84380000  1
  O  O318  1  0.86560000  0.91720000  0.60910000  1
  O  O319  1  0.92790000  0.84380000  0.55880000  1
  O  O320  1  0.86560000  0.08280000  0.39090000  1
  O  O321  1  0.92790000  0.15620000  0.44120000  1
  O  O322  1  0.36560000  0.39090000  0.91720000  1
  O  O323  1  0.42790000  0.44120000  0.84380000  1
  O  O324  1  0.36560000  0.60910000  0.08280000  1
  O  O325  1  0.42790000  0.55880000  0.15620000  1
  O  O326  1  0.13440000  0.08280000  0.60910000  1
  O  O327  1  0.07210000  0.15620000  0.55880000  1
  O  O328  1  0.13440000  0.91720000  0.39090000  1
  O  O329  1  0.07210000  0.84380000  0.44120000  1
  O  O330  1  0.63440000  0.60910000  0.91720000  1
  O  O331  1  0.57210000  0.55880000  0.84380000  1
  O  O332  1  0.63440000  0.39090000  0.08280000  1
  O  O333  1  0.57210000  0.44120000  0.15620000  1
  O  O334  1  0.20510000  0.00000000  0.44770000  1
  O  O335  1  0.45960000  0.00000000  0.60250000  1
  O  O336  1  0.06190000  0.00000000  0.33180000  1
  O  O337  1  0.20510000  0.00000000  0.55230000  1
  O  O338  1  0.06190000  0.00000000  0.66820000  1
  O  O339  1  0.70510000  0.55230000  0.00000000  1
  O  O340  1  0.56190000  0.66820000  0.00000000  1
  O  O341  1  0.70510000  0.44770000  0.00000000  1
  O  O342  1  0.95960000  0.60250000  0.00000000  1
  O  O343  1  0.56190000  0.33180000  0.00000000  1
  O  O344  1  0.79490000  0.00000000  0.44770000  1
  O  O345  1  0.93810000  0.00000000  0.33180000  1
  O  O346  1  0.79490000  0.00000000  0.55230000  1
  O  O347  1  0.54040000  0.00000000  0.39750000  1
  O  O348  1  0.93810000  0.00000000  0.66820000  1
  O  O349  1  0.29490000  0.44770000  0.00000000  1
  O  O350  1  0.43810000  0.33180000  0.00000000  1
  O  O351  1  0.29490000  0.55230000  0.00000000  1
  O  O352  1  0.04040000  0.39750000  0.00000000  1
  O  O353  1  0.43810000  0.66820000  0.00000000  1
  O  O354  1  0.00000000  0.05420000  0.42510000  1
  O  O355  1  0.00000000  0.94580000  0.57490000  1
  O  O356  1  0.50000000  0.57490000  0.05420000  1
  O  O357  1  0.50000000  0.42510000  0.94580000  1
  O  O358  1  0.00000000  0.94580000  0.42510000  1
  O  O359  1  0.00000000  0.05420000  0.57490000  1
  O  O360  1  0.50000000  0.42510000  0.05420000  1
  O  O361  1  0.50000000  0.57490000  0.94580000  1
  O  O362  1  0.09270000  0.05380000  0.50000000  1
  O  O363  1  0.09270000  0.94620000  0.50000000  1
  O  O364  1  0.59270000  0.50000000  0.05380000  1
  O  O365  1  0.59270000  0.50000000  0.94620000  1
  O  O366  1  0.90730000  0.94620000  0.50000000  1
  O  O367  1  0.90730000  0.05380000  0.50000000  1
  O  O368  1  0.40730000  0.50000000  0.05380000  1
  O  O369  1  0.40730000  0.50000000  0.94620000  1
  F  F370  1  0.18700000  0.38160000  0.33750000  1
  F  F371  1  0.11000000  0.34860000  0.27700000  1
  F  F372  1  0.08910000  0.34880000  0.36860000  1
  F  F373  1  0.18700000  0.61840000  0.66250000  1
  F  F374  1  0.11000000  0.65140000  0.72300000  1
  F  F375  1  0.08910000  0.65120000  0.63140000  1
  F  F376  1  0.82300000  0.78180000  0.17920000  1
  F  F377  1  0.88230000  0.71140000  0.21490000  1
  F  F378  1  0.84430000  0.70670000  0.12810000  1
  F  F379  1  0.82300000  0.21820000  0.82080000  1
  F  F380  1  0.88230000  0.28860000  0.78510000  1
  F  F381  1  0.84430000  0.29330000  0.87190000  1
  F  F382  1  0.81300000  0.61840000  0.33750000  1
  F  F383  1  0.89000000  0.65140000  0.27700000  1
  F  F384  1  0.91090000  0.65120000  0.36860000  1
  F  F385  1  0.81300000  0.38160000  0.66250000  1
  F  F386  1  0.89000000  0.34860000  0.72300000  1
  F  F387  1  0.91090000  0.34880000  0.63140000  1
  F  F388  1  0.17700000  0.21820000  0.17920000  1
  F  F389  1  0.11770000  0.28860000  0.21490000  1
  F  F390  1  0.15570000  0.29330000  0.12810000  1
  F  F391  1  0.31300000  0.66250000  0.61840000  1
  F  F392  1  0.39000000  0.72300000  0.65140000  1
  F  F393  1  0.41090000  0.63140000  0.65120000  1
  F  F394  1  0.67700000  0.82080000  0.78180000  1
  F  F395  1  0.61770000  0.78510000  0.71140000  1
  F  F396  1  0.65570000  0.87190000  0.70670000  1
  F  F397  1  0.67700000  0.17920000  0.21820000  1
  F  F398  1  0.61770000  0.21490000  0.28860000  1
  F  F399  1  0.65570000  0.12810000  0.29330000  1
  F  F400  1  0.31300000  0.33750000  0.61840000  1
  F  F401  1  0.39000000  0.27700000  0.65140000  1
  F  F402  1  0.41090000  0.36860000  0.65120000  1
  F  F403  1  0.31300000  0.66250000  0.38160000  1
  F  F404  1  0.39000000  0.72300000  0.34860000  1
  F  F405  1  0.41090000  0.63140000  0.34880000  1
  F  F406  1  0.32300000  0.17920000  0.78180000  1
  F  F407  1  0.38230000  0.21490000  0.71140000  1
  F  F408  1  0.34430000  0.12810000  0.70670000  1
  F  F409  1  0.32300000  0.82080000  0.21820000  1
  F  F410  1  0.38230000  0.78510000  0.28860000  1
  F  F411  1  0.34430000  0.87190000  0.29330000  1
  F  F412  1  0.68700000  0.66250000  0.61840000  1
  F  F413  1  0.61000000  0.72300000  0.65140000  1
  F  F414  1  0.58910000  0.63140000  0.65120000  1
  F  F415  1  0.68700000  0.33750000  0.38160000  1
  F  F416  1  0.61000000  0.27700000  0.34860000  1
  F  F417  1  0.58910000  0.36860000  0.34880000  1
