# generated using pymatgen
data_Zr6H44C101(O16F15)2
_symmetry_space_group_name_H-M   'P 1'
_cell_length_a   18.85980000
_cell_length_b   23.11290000
_cell_length_c   23.11290000
_cell_angle_alpha   90.00000000
_cell_angle_beta   90.00000000
_cell_angle_gamma   90.00000000
_symmetry_Int_Tables_number   1
_chemical_formula_structural   Zr6H44C101(O16F15)2
_chemical_formula_sum   'Zr12 H88 C202 O64 F60'
_cell_volume   10075.02108006
_cell_formula_units_Z   2
loop_
 _symmetry_equiv_pos_site_id
 _symmetry_equiv_pos_as_xyz
  1  'x, y, z'
loop_
 _atom_site_type_symbol
 _atom_site_label
 _atom_site_symmetry_multiplicity
 _atom_site_fract_x
 _atom_site_fract_y
 _atom_site_fract_z
 _atom_site_occupancy
  Zr  Zr0  1  0.00000000  0.39210000  0.00000000  1
  Zr  Zr1  1  0.00000000  0.60790000  0.00000000  1
  Zr  Zr2  1  0.50000000  0.00000000  0.39210000  1
  Zr  Zr3  1  0.50000000  0.00000000  0.60790000  1
  Zr  Zr4  1  0.09228000  0.50000000  0.07555000  1
  Zr  Zr5  1  0.09228000  0.50000000  0.92445000  1
  Zr  Zr6  1  0.59228000  0.92445000  0.50000000  1
  Zr  Zr7  1  0.59228000  0.07555000  0.50000000  1
  Zr  Zr8  1  0.90772000  0.50000000  0.07555000  1
  Zr  Zr9  1  0.90772000  0.50000000  0.92445000  1
  Zr  Zr10  1  0.40772000  0.07555000  0.50000000  1
  Zr  Zr11  1  0.40772000  0.92445000  0.50000000  1
  H  H12  1  0.09890000  0.25050000  0.10800000  1
  H  H13  1  0.22740000  0.37440000  0.16540000  1
  H  H14  1  0.29780000  0.30690000  0.21390000  1
  H  H15  1  0.95760000  0.36970000  0.45080000  1
  H  H16  1  0.32340000  0.46410000  0.91980000  1
  H  H17  1  0.09890000  0.74950000  0.89200000  1
  H  H18  1  0.22740000  0.62560000  0.83460000  1
  H  H19  1  0.29780000  0.69310000  0.78610000  1
  H  H20  1  0.32340000  0.53590000  0.08020000  1
  H  H21  1  0.44740000  0.53590000  0.08010000  1
  H  H22  1  0.59890000  0.89200000  0.25050000  1
  H  H23  1  0.72740000  0.83460000  0.37440000  1
  H  H24  1  0.79780000  0.78610000  0.30690000  1
  H  H25  1  0.82340000  0.08020000  0.46410000  1
  H  H26  1  0.59890000  0.10800000  0.74950000  1
  H  H27  1  0.72740000  0.16540000  0.62560000  1
  H  H28  1  0.79780000  0.21390000  0.69310000  1
  H  H29  1  0.82340000  0.91980000  0.53590000  1
  H  H30  1  0.94740000  0.91990000  0.53590000  1
  H  H31  1  0.90110000  0.74950000  0.10800000  1
  H  H32  1  0.77260000  0.62560000  0.16540000  1
  H  H33  1  0.67660000  0.53590000  0.91980000  1
  H  H34  1  0.84360000  0.81500000  0.16660000  1
  H  H35  1  0.55260000  0.53590000  0.91990000  1
  H  H36  1  0.90110000  0.25050000  0.89200000  1
  H  H37  1  0.77260000  0.37440000  0.83460000  1
  H  H38  1  0.67660000  0.46410000  0.08020000  1
  H  H39  1  0.84360000  0.18500000  0.83340000  1
  H  H40  1  0.40110000  0.10800000  0.25050000  1
  H  H41  1  0.27260000  0.16540000  0.37440000  1
  H  H42  1  0.20220000  0.21390000  0.30690000  1
  H  H43  1  0.17660000  0.91980000  0.46410000  1
  H  H44  1  0.40110000  0.89200000  0.74950000  1
  H  H45  1  0.27260000  0.83460000  0.62560000  1
  H  H46  1  0.54240000  0.54920000  0.63030000  1
  H  H47  1  0.17660000  0.08020000  0.53590000  1
  H  H48  1  0.34360000  0.83340000  0.81500000  1
  H  H49  1  0.05260000  0.08010000  0.53590000  1
  H  H50  1  0.90110000  0.74950000  0.89200000  1
  H  H51  1  0.77260000  0.62560000  0.83460000  1
  H  H52  1  0.84360000  0.81500000  0.83340000  1
  H  H53  1  0.90110000  0.25050000  0.10800000  1
  H  H54  1  0.77260000  0.37440000  0.16540000  1
  H  H55  1  0.04240000  0.36970000  0.45080000  1
  H  H56  1  0.84360000  0.18500000  0.16660000  1
  H  H57  1  0.40110000  0.10800000  0.74950000  1
  H  H58  1  0.27260000  0.16540000  0.62560000  1
  H  H59  1  0.20220000  0.21390000  0.69310000  1
  H  H60  1  0.40110000  0.89200000  0.25050000  1
  H  H61  1  0.27260000  0.83460000  0.37440000  1
  H  H62  1  0.20220000  0.78610000  0.30690000  1
  H  H63  1  0.09890000  0.25050000  0.89200000  1
  H  H64  1  0.22740000  0.37440000  0.83460000  1
  H  H65  1  0.29780000  0.30690000  0.78610000  1
  H  H66  1  0.09890000  0.74950000  0.10800000  1
  H  H67  1  0.22740000  0.62560000  0.16540000  1
  H  H68  1  0.29780000  0.69310000  0.21390000  1
  H  H69  1  0.59890000  0.89200000  0.74950000  1
  H  H70  1  0.72740000  0.83460000  0.62560000  1
  H  H71  1  0.45760000  0.54920000  0.63030000  1
  H  H72  1  0.65640000  0.83340000  0.81500000  1
  H  H73  1  0.59890000  0.10800000  0.25050000  1
  H  H74  1  0.72740000  0.16540000  0.37440000  1
  H  H75  1  0.79780000  0.21390000  0.30690000  1
  H  H76  1  0.10740000  0.50000000  0.36670000  1
  H  H77  1  0.10750000  0.50000000  0.26500000  1
  H  H78  1  0.10740000  0.50000000  0.63330000  1
  H  H79  1  0.10750000  0.50000000  0.73500000  1
  H  H80  1  0.60740000  0.63330000  0.50000000  1
  H  H81  1  0.60750000  0.73500000  0.50000000  1
  H  H82  1  0.60740000  0.36670000  0.50000000  1
  H  H83  1  0.60750000  0.26500000  0.50000000  1
  H  H84  1  0.89260000  0.50000000  0.36670000  1
  H  H85  1  0.89250000  0.50000000  0.26500000  1
  H  H86  1  0.89260000  0.50000000  0.63330000  1
  H  H87  1  0.89250000  0.50000000  0.73500000  1
  H  H88  1  0.39260000  0.36670000  0.50000000  1
  H  H89  1  0.39250000  0.26500000  0.50000000  1
  H  H90  1  0.39260000  0.63330000  0.50000000  1
  H  H91  1  0.39250000  0.73500000  0.50000000  1
  H  H92  1  0.00000000  0.39700000  0.39740000  1
  H  H93  1  0.00000000  0.58630000  0.55130000  1
  H  H94  1  0.50000000  0.55130000  0.41370000  1
  H  H95  1  0.50000000  0.44870000  0.58630000  1
  H  H96  1  0.00000000  0.58630000  0.44870000  1
  H  H97  1  0.00000000  0.41370000  0.55130000  1
  H  H98  1  0.50000000  0.44870000  0.41370000  1
  H  H99  1  0.50000000  0.60260000  0.60300000  1
  C  C100  1  0.23210000  0.23980000  0.19850000  1
  C  C101  1  0.17260000  0.22390000  0.16530000  1
  C  C102  1  0.13750000  0.26300000  0.13130000  1
  C  C103  1  0.15710000  0.31900000  0.13050000  1
  C  C104  1  0.21470000  0.33470000  0.16380000  1
  C  C105  1  0.25520000  0.29520000  0.19530000  1
  C  C106  1  0.11840000  0.36400000  0.09710000  1
  C  C107  1  0.14030000  0.16450000  0.16720000  1
  C  C108  1  0.42260000  0.47870000  0.95240000  1
  C  C109  1  0.34850000  0.47870000  0.95250000  1
  C  C110  1  0.46100000  0.45530000  0.89990000  1
  C  C111  1  0.23210000  0.76020000  0.80150000  1
  C  C112  1  0.17260000  0.77610000  0.83470000  1
  C  C113  1  0.13750000  0.73700000  0.86870000  1
  C  C114  1  0.15710000  0.68100000  0.86950000  1
  C  C115  1  0.21470000  0.66530000  0.83620000  1
  C  C116  1  0.25520000  0.70480000  0.80470000  1
  C  C117  1  0.11840000  0.63600000  0.90290000  1
  C  C118  1  0.14030000  0.83550000  0.83280000  1
  C  C119  1  0.42260000  0.52130000  0.04760000  1
  C  C120  1  0.34850000  0.52130000  0.04750000  1
  C  C121  1  0.73210000  0.80150000  0.23980000  1
  C  C122  1  0.67260000  0.83470000  0.22390000  1
  C  C123  1  0.63750000  0.86870000  0.26300000  1
  C  C124  1  0.65710000  0.86950000  0.31900000  1
  C  C125  1  0.71470000  0.83620000  0.33470000  1
  C  C126  1  0.75520000  0.80470000  0.29520000  1
  C  C127  1  0.61840000  0.90290000  0.36400000  1
  C  C128  1  0.64030000  0.83280000  0.16450000  1
  C  C129  1  0.92260000  0.04760000  0.47870000  1
  C  C130  1  0.84850000  0.04750000  0.47870000  1
  C  C131  1  0.96100000  0.10010000  0.45530000  1
  C  C132  1  0.73210000  0.19850000  0.76020000  1
  C  C133  1  0.67260000  0.16530000  0.77610000  1
  C  C134  1  0.63750000  0.13130000  0.73700000  1
  C  C135  1  0.65710000  0.13050000  0.68100000  1
  C  C136  1  0.71470000  0.16380000  0.66530000  1
  C  C137  1  0.75520000  0.19530000  0.70480000  1
  C  C138  1  0.61840000  0.09710000  0.63600000  1
  C  C139  1  0.64030000  0.16720000  0.83550000  1
  C  C140  1  0.92260000  0.95240000  0.52130000  1
  C  C141  1  0.84850000  0.95250000  0.52130000  1
  C  C142  1  0.76790000  0.76020000  0.19850000  1
  C  C143  1  0.82740000  0.77610000  0.16530000  1
  C  C144  1  0.86250000  0.73700000  0.13130000  1
  C  C145  1  0.84290000  0.68100000  0.13050000  1
  C  C146  1  0.78530000  0.66530000  0.16380000  1
  C  C147  1  0.74480000  0.70480000  0.19530000  1
  C  C148  1  0.88160000  0.63600000  0.09710000  1
  C  C149  1  0.57740000  0.52130000  0.95240000  1
  C  C150  1  0.65150000  0.52130000  0.95250000  1
  C  C151  1  0.67490000  0.68080000  0.21570000  1
  C  C152  1  0.76790000  0.23980000  0.80150000  1
  C  C153  1  0.82740000  0.22390000  0.83470000  1
  C  C154  1  0.86250000  0.26300000  0.86870000  1
  C  C155  1  0.84290000  0.31900000  0.86950000  1
  C  C156  1  0.78530000  0.33470000  0.83620000  1
  C  C157  1  0.74480000  0.29520000  0.80470000  1
  C  C158  1  0.88160000  0.36400000  0.90290000  1
  C  C159  1  0.57740000  0.47870000  0.04760000  1
  C  C160  1  0.65150000  0.47870000  0.04750000  1
  C  C161  1  0.53900000  0.45530000  0.10010000  1
  C  C162  1  0.67490000  0.31920000  0.78430000  1
  C  C163  1  0.26790000  0.19850000  0.23980000  1
  C  C164  1  0.32740000  0.16530000  0.22390000  1
  C  C165  1  0.36250000  0.13130000  0.26300000  1
  C  C166  1  0.34290000  0.13050000  0.31900000  1
  C  C167  1  0.28530000  0.16380000  0.33470000  1
  C  C168  1  0.24480000  0.19530000  0.29520000  1
  C  C169  1  0.38160000  0.09710000  0.36400000  1
  C  C170  1  0.35970000  0.16720000  0.16450000  1
  C  C171  1  0.07740000  0.95240000  0.47870000  1
  C  C172  1  0.15150000  0.95250000  0.47870000  1
  C  C173  1  0.03900000  0.89990000  0.45530000  1
  C  C174  1  0.26790000  0.80150000  0.76020000  1
  C  C175  1  0.32740000  0.83470000  0.77610000  1
  C  C176  1  0.36250000  0.86870000  0.73700000  1
  C  C177  1  0.34290000  0.86950000  0.68100000  1
  C  C178  1  0.28530000  0.83620000  0.66530000  1
  C  C179  1  0.24480000  0.80470000  0.70480000  1
  C  C180  1  0.38160000  0.90290000  0.63600000  1
  C  C181  1  0.07740000  0.04760000  0.52130000  1
  C  C182  1  0.15150000  0.04750000  0.52130000  1
  C  C183  1  0.17490000  0.78430000  0.68080000  1
  C  C184  1  0.76790000  0.76020000  0.80150000  1
  C  C185  1  0.82740000  0.77610000  0.83470000  1
  C  C186  1  0.86250000  0.73700000  0.86870000  1
  C  C187  1  0.84290000  0.68100000  0.86950000  1
  C  C188  1  0.78530000  0.66530000  0.83620000  1
  C  C189  1  0.74480000  0.70480000  0.80470000  1
  C  C190  1  0.88160000  0.63600000  0.90290000  1
  C  C191  1  0.67490000  0.68080000  0.78430000  1
  C  C192  1  0.76790000  0.23980000  0.19850000  1
  C  C193  1  0.82740000  0.22390000  0.16530000  1
  C  C194  1  0.86250000  0.26300000  0.13130000  1
  C  C195  1  0.84290000  0.31900000  0.13050000  1
  C  C196  1  0.78530000  0.33470000  0.16380000  1
  C  C197  1  0.74480000  0.29520000  0.19530000  1
  C  C198  1  0.88160000  0.36400000  0.09710000  1
  C  C199  1  0.67490000  0.31920000  0.21570000  1
  C  C200  1  0.26790000  0.19850000  0.76020000  1
  C  C201  1  0.32740000  0.16530000  0.77610000  1
  C  C202  1  0.36250000  0.13130000  0.73700000  1
  C  C203  1  0.34290000  0.13050000  0.68100000  1
  C  C204  1  0.28530000  0.16380000  0.66530000  1
  C  C205  1  0.24480000  0.19530000  0.70480000  1
  C  C206  1  0.38160000  0.09710000  0.63600000  1
  C  C207  1  0.35970000  0.16720000  0.83550000  1
  C  C208  1  0.26790000  0.80150000  0.23980000  1
  C  C209  1  0.32740000  0.83470000  0.22390000  1
  C  C210  1  0.36250000  0.86870000  0.26300000  1
  C  C211  1  0.34290000  0.86950000  0.31900000  1
  C  C212  1  0.28530000  0.83620000  0.33470000  1
  C  C213  1  0.24480000  0.80470000  0.29520000  1
  C  C214  1  0.38160000  0.90290000  0.36400000  1
  C  C215  1  0.35970000  0.83280000  0.16450000  1
  C  C216  1  0.23210000  0.23980000  0.80150000  1
  C  C217  1  0.17260000  0.22390000  0.83470000  1
  C  C218  1  0.13750000  0.26300000  0.86870000  1
  C  C219  1  0.15710000  0.31900000  0.86950000  1
  C  C220  1  0.21470000  0.33470000  0.83620000  1
  C  C221  1  0.25520000  0.29520000  0.80470000  1
  C  C222  1  0.11840000  0.36400000  0.90290000  1
  C  C223  1  0.14030000  0.16450000  0.83280000  1
  C  C224  1  0.23210000  0.76020000  0.19850000  1
  C  C225  1  0.17260000  0.77610000  0.16530000  1
  C  C226  1  0.13750000  0.73700000  0.13130000  1
  C  C227  1  0.15710000  0.68100000  0.13050000  1
  C  C228  1  0.21470000  0.66530000  0.16380000  1
  C  C229  1  0.25520000  0.70480000  0.19530000  1
  C  C230  1  0.11840000  0.63600000  0.09710000  1
  C  C231  1  0.14030000  0.83550000  0.16720000  1
  C  C232  1  0.73210000  0.80150000  0.76020000  1
  C  C233  1  0.67260000  0.83470000  0.77610000  1
  C  C234  1  0.63750000  0.86870000  0.73700000  1
  C  C235  1  0.65710000  0.86950000  0.68100000  1
  C  C236  1  0.71470000  0.83620000  0.66530000  1
  C  C237  1  0.75520000  0.80470000  0.70480000  1
  C  C238  1  0.61840000  0.90290000  0.63600000  1
  C  C239  1  0.82510000  0.78430000  0.68080000  1
  C  C240  1  0.73210000  0.19850000  0.23980000  1
  C  C241  1  0.67260000  0.16530000  0.22390000  1
  C  C242  1  0.63750000  0.13130000  0.26300000  1
  C  C243  1  0.65710000  0.13050000  0.31900000  1
  C  C244  1  0.71470000  0.16380000  0.33470000  1
  C  C245  1  0.75520000  0.19530000  0.29520000  1
  C  C246  1  0.61840000  0.09710000  0.36400000  1
  C  C247  1  0.64030000  0.16720000  0.16450000  1
  C  C248  1  0.06390000  0.50000000  0.34600000  1
  C  C249  1  0.06390000  0.50000000  0.28560000  1
  C  C250  1  0.06390000  0.50000000  0.65400000  1
  C  C251  1  0.06390000  0.50000000  0.71440000  1
  C  C252  1  0.56390000  0.65400000  0.50000000  1
  C  C253  1  0.56390000  0.71440000  0.50000000  1
  C  C254  1  0.56390000  0.34600000  0.50000000  1
  C  C255  1  0.56390000  0.28560000  0.50000000  1
  C  C256  1  0.93610000  0.50000000  0.34600000  1
  C  C257  1  0.93610000  0.50000000  0.28560000  1
  C  C258  1  0.93610000  0.50000000  0.65400000  1
  C  C259  1  0.93610000  0.50000000  0.71440000  1
  C  C260  1  0.43610000  0.34600000  0.50000000  1
  C  C261  1  0.43610000  0.28560000  0.50000000  1
  C  C262  1  0.43610000  0.65400000  0.50000000  1
  C  C263  1  0.43610000  0.71440000  0.50000000  1
  C  C264  1  0.00000000  0.44930000  0.46915000  1
  C  C265  1  0.00000000  0.39140000  0.43950000  1
  C  C266  1  0.00000000  0.55070000  0.53085000  1
  C  C267  1  0.50000000  0.53085000  0.44930000  1
  C  C268  1  0.50000000  0.46915000  0.55070000  1
  C  C269  1  0.00000000  0.55070000  0.46915000  1
  C  C270  1  0.00000000  0.44930000  0.53085000  1
  C  C271  1  0.50000000  0.46915000  0.44930000  1
  C  C272  1  0.50000000  0.53085000  0.55070000  1
  C  C273  1  0.50000000  0.56050000  0.60860000  1
  C  C274  1  0.00000000  0.50000000  0.43960000  1
  C  C275  1  0.00000000  0.50000000  0.37560000  1
  C  C276  1  0.00000000  0.50000000  0.25550000  1
  C  C277  1  0.00000000  0.50000000  0.19080000  1
  C  C278  1  0.00000000  0.50000000  0.56040000  1
  C  C279  1  0.00000000  0.50000000  0.62440000  1
  C  C280  1  0.00000000  0.50000000  0.74450000  1
  C  C281  1  0.00000000  0.50000000  0.80920000  1
  C  C282  1  0.50000000  0.56040000  0.50000000  1
  C  C283  1  0.50000000  0.62440000  0.50000000  1
  C  C284  1  0.50000000  0.74450000  0.50000000  1
  C  C285  1  0.50000000  0.80920000  0.50000000  1
  C  C286  1  0.50000000  0.43960000  0.50000000  1
  C  C287  1  0.50000000  0.37560000  0.50000000  1
  C  C288  1  0.50000000  0.25550000  0.50000000  1
  C  C289  1  0.50000000  0.19080000  0.50000000  1
  C  C290  1  0.46000000  0.50000000  0.00000000  1
  C  C291  1  0.31200000  0.50000000  0.00000000  1
  C  C292  1  0.23260000  0.50000000  0.00000000  1
  C  C293  1  0.96000000  0.00000000  0.50000000  1
  C  C294  1  0.81200000  0.00000000  0.50000000  1
  C  C295  1  0.73260000  0.00000000  0.50000000  1
  C  C296  1  0.54000000  0.50000000  0.00000000  1
  C  C297  1  0.68800000  0.50000000  0.00000000  1
  C  C298  1  0.76740000  0.50000000  0.00000000  1
  C  C299  1  0.04000000  0.00000000  0.50000000  1
  C  C300  1  0.18800000  0.00000000  0.50000000  1
  C  C301  1  0.26740000  0.00000000  0.50000000  1
  O  O302  1  0.07170000  0.34354000  0.05864000  1
  O  O303  1  0.13490000  0.41710000  0.10990000  1
  O  O304  1  0.07170000  0.65646000  0.94136000  1
  O  O305  1  0.13490000  0.58290000  0.89010000  1
  O  O306  1  0.57170000  0.94136000  0.34354000  1
  O  O307  1  0.63490000  0.89010000  0.41710000  1
  O  O308  1  0.57170000  0.05864000  0.65646000  1
  O  O309  1  0.63490000  0.10990000  0.58290000  1
  O  O310  1  0.92830000  0.65646000  0.05864000  1
  O  O311  1  0.86510000  0.58290000  0.10990000  1
  O  O312  1  0.92830000  0.34354000  0.94136000  1
  O  O313  1  0.86510000  0.41710000  0.89010000  1
  O  O314  1  0.42830000  0.05864000  0.34354000  1
  O  O315  1  0.36510000  0.10990000  0.41710000  1
  O  O316  1  0.42830000  0.94136000  0.65646000  1
  O  O317  1  0.36510000  0.89010000  0.58290000  1
  O  O318  1  0.92830000  0.65646000  0.94136000  1
  O  O319  1  0.86510000  0.58290000  0.89010000  1
  O  O320  1  0.92830000  0.34354000  0.05864000  1
  O  O321  1  0.86510000  0.41710000  0.10990000  1
  O  O322  1  0.42830000  0.05864000  0.65646000  1
  O  O323  1  0.36510000  0.10990000  0.58290000  1
  O  O324  1  0.42830000  0.94136000  0.34354000  1
  O  O325  1  0.36510000  0.89010000  0.41710000  1
  O  O326  1  0.07170000  0.34354000  0.94136000  1
  O  O327  1  0.13490000  0.41710000  0.89010000  1
  O  O328  1  0.07170000  0.65646000  0.05864000  1
  O  O329  1  0.13490000  0.58290000  0.10990000  1
  O  O330  1  0.57170000  0.94136000  0.65646000  1
  O  O331  1  0.63490000  0.89010000  0.58290000  1
  O  O332  1  0.57170000  0.05864000  0.34354000  1
  O  O333  1  0.63490000  0.10990000  0.41710000  1
  O  O334  1  0.05930000  0.50000000  0.16750000  1
  O  O335  1  0.20570000  0.50000000  0.05300000  1
  O  O336  1  0.05930000  0.50000000  0.83250000  1
  O  O337  1  0.20570000  0.50000000  0.94700000  1
  O  O338  1  0.55930000  0.83250000  0.50000000  1
  O  O339  1  0.70570000  0.94700000  0.50000000  1
  O  O340  1  0.55930000  0.16750000  0.50000000  1
  O  O341  1  0.70570000  0.05300000  0.50000000  1
  O  O342  1  0.94070000  0.50000000  0.16750000  1
  O  O343  1  0.79430000  0.50000000  0.05300000  1
  O  O344  1  0.94070000  0.50000000  0.83250000  1
  O  O345  1  0.79430000  0.50000000  0.94700000  1
  O  O346  1  0.44070000  0.16750000  0.50000000  1
  O  O347  1  0.29430000  0.05300000  0.50000000  1
  O  O348  1  0.44070000  0.83250000  0.50000000  1
  O  O349  1  0.29430000  0.94700000  0.50000000  1
  O  O350  1  1.00000000  0.44670000  0.07420000  1
  O  O351  1  0.00000000  0.55330000  0.92580000  1
  O  O352  1  0.50000000  0.92580000  0.44670000  1
  O  O353  1  0.50000000  0.07420000  0.55330000  1
  O  O354  1  0.00000000  0.55330000  0.07420000  1
  O  O355  1  0.00000000  0.44670000  0.92580000  1
  O  O356  1  0.50000000  0.07420000  0.44670000  1
  O  O357  1  0.50000000  0.92580000  0.55330000  1
  O  O358  1  0.09150000  0.44730000  0.00000000  1
  O  O359  1  0.09150000  0.55270000  0.00000000  1
  O  O360  1  0.59150000  0.00000000  0.44730000  1
  O  O361  1  0.59150000  0.00000000  0.55270000  1
  O  O362  1  0.90850000  0.55270000  0.00000000  1
  O  O363  1  0.90850000  0.44730000  0.00000000  1
  O  O364  1  0.40850000  0.00000000  0.44730000  1
  O  O365  1  0.40850000  0.00000000  0.55270000  1
  F  F366  1  0.18770000  0.11960000  0.16130000  1
  F  F367  1  0.11010000  0.15000000  0.22050000  1
  F  F368  1  0.08880000  0.15010000  0.12970000  1
  F  F369  1  0.41260000  0.43770000  0.86090000  1
  F  F370  1  0.18770000  0.88040000  0.83870000  1
  F  F371  1  0.11010000  0.85000000  0.77950000  1
  F  F372  1  0.08880000  0.84990000  0.87030000  1
  F  F373  1  0.68770000  0.83870000  0.11960000  1
  F  F374  1  0.61010000  0.77950000  0.15000000  1
  F  F375  1  0.58880000  0.87030000  0.15010000  1
  F  F376  1  0.91260000  0.13910000  0.43770000  1
  F  F377  1  0.68770000  0.16130000  0.88040000  1
  F  F378  1  0.61010000  0.22050000  0.85000000  1
  F  F379  1  0.58880000  0.12970000  0.84990000  1
  F  F380  1  0.66740000  0.66980000  0.27440000  1
  F  F381  1  0.61450000  0.71360000  0.20750000  1
  F  F382  1  0.65180000  0.62840000  0.19390000  1
  F  F383  1  0.66740000  0.33020000  0.72560000  1
  F  F384  1  0.61450000  0.28640000  0.79250000  1
  F  F385  1  0.65180000  0.37160000  0.80610000  1
  F  F386  1  0.58740000  0.43770000  0.13910000  1
  F  F387  1  0.31230000  0.16130000  0.11960000  1
  F  F388  1  0.38990000  0.22050000  0.15000000  1
  F  F389  1  0.41120000  0.12970000  0.15010000  1
  F  F390  1  0.08740000  0.86090000  0.43770000  1
  F  F391  1  0.16740000  0.72560000  0.66980000  1
  F  F392  1  0.11450000  0.79250000  0.71360000  1
  F  F393  1  0.15180000  0.80610000  0.62840000  1
  F  F394  1  0.66740000  0.66980000  0.72560000  1
  F  F395  1  0.61450000  0.71360000  0.79250000  1
  F  F396  1  0.65180000  0.62840000  0.80610000  1
  F  F397  1  0.66740000  0.33020000  0.27440000  1
  F  F398  1  0.61450000  0.28640000  0.20750000  1
  F  F399  1  0.65180000  0.37160000  0.19390000  1
  F  F400  1  0.31230000  0.16130000  0.88040000  1
  F  F401  1  0.38990000  0.22050000  0.85000000  1
  F  F402  1  0.41120000  0.12970000  0.84990000  1
  F  F403  1  0.31230000  0.83870000  0.11960000  1
  F  F404  1  0.38990000  0.77950000  0.15000000  1
  F  F405  1  0.41120000  0.87030000  0.15010000  1
  F  F406  1  0.18770000  0.11960000  0.83870000  1
  F  F407  1  0.11010000  0.15000000  0.77950000  1
  F  F408  1  0.08880000  0.15010000  0.87030000  1
  F  F409  1  0.18770000  0.88040000  0.16130000  1
  F  F410  1  0.11010000  0.85000000  0.22050000  1
  F  F411  1  0.08880000  0.84990000  0.12970000  1
  F  F412  1  0.83260000  0.72560000  0.66980000  1
  F  F413  1  0.88550000  0.79250000  0.71360000  1
  F  F414  1  0.84820000  0.80610000  0.62840000  1
  F  F415  1  0.68770000  0.16130000  0.11960000  1
  F  F416  1  0.61010000  0.22050000  0.15000000  1
  F  F417  1  0.58880000  0.12970000  0.15010000  1
  F  F418  1  0.50000000  0.40950000  0.91610000  1
  F  F419  1  0.00000000  0.08390000  0.40950000  1
  F  F420  1  0.50000000  0.40950000  0.08390000  1
  F  F421  1  0.00000000  0.91610000  0.40950000  1
  F  F422  1  0.50000000  0.50000000  0.87840000  1
  F  F423  1  0.50000000  0.50000000  0.12160000  1
  F  F424  1  0.00000000  0.12160000  0.50000000  1
  F  F425  1  0.00000000  0.87840000  0.50000000  1
