# generated using pymatgen
data_Zr6H45C98N(O17F12)2
_symmetry_space_group_name_H-M   'P 1'
_cell_length_a   18.83680000
_cell_length_b   23.05000000
_cell_length_c   23.05000000
_cell_angle_alpha   90.00000000
_cell_angle_beta   90.00000000
_cell_angle_gamma   90.00000000
_symmetry_Int_Tables_number   1
_chemical_formula_structural   Zr6H45C98N(O17F12)2
_chemical_formula_sum   'Zr12 H90 C196 N2 O68 F48'
_cell_volume   10008.03893200
_cell_formula_units_Z   2
loop_
 _symmetry_equiv_pos_site_id
 _symmetry_equiv_pos_as_xyz
  1  'x, y, z'
loop_
 _atom_site_type_symbol
 _atom_site_label
 _atom_site_symmetry_multiplicity
 _atom_site_fract_x
 _atom_site_fract_y
 _atom_site_fract_z
 _atom_site_occupancy
  Zr  Zr0  1  0.00000000  0.50000000  0.10761000  1
  Zr  Zr1  1  1.00000000  0.50000000  0.89239000  1
  Zr  Zr2  1  0.50000000  0.89239000  0.50000000  1
  Zr  Zr3  1  0.50000000  0.10761000  0.50000000  1
  Zr  Zr4  1  0.09261000  0.42429000  0.00000000  1
  Zr  Zr5  1  0.09261000  0.57571000  0.00000000  1
  Zr  Zr6  1  0.59261000  1.00000000  0.42429000  1
  Zr  Zr7  1  0.59261000  0.00000000  0.57571000  1
  Zr  Zr8  1  0.90739000  0.57571000  0.00000000  1
  Zr  Zr9  1  0.90739000  0.42429000  0.00000000  1
  Zr  Zr10  1  0.40739000  1.00000000  0.42429000  1
  Zr  Zr11  1  0.40739000  0.00000000  0.57571000  1
  H  H12  1  0.10130000  0.39560000  0.25090000  1
  H  H13  1  0.22630000  0.33450000  0.12450000  1
  H  H14  1  0.29090000  0.28230000  0.19330000  1
  H  H15  1  0.10130000  0.60440000  0.74910000  1
  H  H16  1  0.22630000  0.66550000  0.87550000  1
  H  H17  1  0.29090000  0.71770000  0.80670000  1
  H  H18  1  0.06610000  0.94950000  0.93030000  1
  H  H19  1  0.60130000  0.74910000  0.39560000  1
  H  H20  1  0.72630000  0.87550000  0.33450000  1
  H  H21  1  0.66150000  0.68080000  0.33770000  1
  H  H22  1  0.57890000  0.08310000  0.90290000  1
  H  H23  1  0.60270000  0.10820000  0.96100000  1
  H  H24  1  0.60130000  0.25090000  0.60440000  1
  H  H25  1  0.72630000  0.12450000  0.66550000  1
  H  H26  1  0.66150000  0.31920000  0.66230000  1
  H  H27  1  0.89870000  0.60440000  0.25090000  1
  H  H28  1  0.77370000  0.66550000  0.12450000  1
  H  H29  1  0.70910000  0.71770000  0.19330000  1
  H  H30  1  0.93390000  0.94950000  0.06970000  1
  H  H31  1  0.89870000  0.39560000  0.74910000  1
  H  H32  1  0.77370000  0.33450000  0.87550000  1
  H  H33  1  0.70910000  0.28230000  0.80670000  1
  H  H34  1  0.39870000  0.25090000  0.39560000  1
  H  H35  1  0.27370000  0.12450000  0.33450000  1
  H  H36  1  0.33850000  0.31920000  0.33770000  1
  H  H37  1  0.39870000  0.74910000  0.60440000  1
  H  H38  1  0.27370000  0.87550000  0.66550000  1
  H  H39  1  0.43390000  0.93030000  0.94950000  1
  H  H40  1  0.33850000  0.68080000  0.66230000  1
  H  H41  1  0.89870000  0.60440000  0.74910000  1
  H  H42  1  0.77370000  0.66550000  0.87550000  1
  H  H43  1  0.83850000  0.66230000  0.68080000  1
  H  H44  1  0.92110000  0.09710000  0.08310000  1
  H  H45  1  0.89730000  0.03900000  0.10820000  1
  H  H46  1  0.89870000  0.39560000  0.25090000  1
  H  H47  1  0.77370000  0.33450000  0.12450000  1
  H  H48  1  0.70910000  0.28230000  0.19330000  1
  H  H49  1  0.39870000  0.25090000  0.60440000  1
  H  H50  1  0.27370000  0.12450000  0.66550000  1
  H  H51  1  0.20910000  0.19330000  0.71770000  1
  H  H52  1  0.39870000  0.74910000  0.39560000  1
  H  H53  1  0.27370000  0.87550000  0.33450000  1
  H  H54  1  0.20910000  0.80670000  0.28230000  1
  H  H55  1  0.43390000  0.93030000  0.05050000  1
  H  H56  1  0.10130000  0.39560000  0.74910000  1
  H  H57  1  0.22630000  0.33450000  0.87550000  1
  H  H58  1  0.06610000  0.05050000  0.93030000  1
  H  H59  1  0.16150000  0.33770000  0.68080000  1
  H  H60  1  0.10130000  0.60440000  0.25090000  1
  H  H61  1  0.22630000  0.66550000  0.12450000  1
  H  H62  1  0.16150000  0.66230000  0.31920000  1
  H  H63  1  0.60130000  0.74910000  0.60440000  1
  H  H64  1  0.72630000  0.87550000  0.66550000  1
  H  H65  1  0.79090000  0.80670000  0.71770000  1
  H  H66  1  0.60130000  0.25090000  0.39560000  1
  H  H67  1  0.72630000  0.12450000  0.33450000  1
  H  H68  1  0.56610000  0.06970000  0.05050000  1
  H  H69  1  0.66150000  0.31920000  0.33770000  1
  H  H70  1  0.32400000  0.41190000  0.00000000  1
  H  H71  1  0.10760000  0.23680000  0.00000000  1
  H  H72  1  0.10770000  0.13500000  0.00000000  1
  H  H73  1  0.44840000  0.41200000  0.00000000  1
  H  H74  1  0.32400000  0.58810000  0.00000000  1
  H  H75  1  0.10760000  0.76320000  0.00000000  1
  H  H76  1  0.10770000  0.86500000  0.00000000  1
  H  H77  1  0.44220000  0.63830000  0.00000000  1
  H  H78  1  0.82400000  0.00000000  0.41190000  1
  H  H79  1  0.60760000  1.00000000  0.23680000  1
  H  H80  1  0.60770000  1.00000000  0.13500000  1
  H  H81  1  0.94220000  0.00000000  0.36170000  1
  H  H82  1  0.82400000  0.00000000  0.58810000  1
  H  H83  1  0.60760000  0.00000000  0.76320000  1
  H  H84  1  0.60770000  0.00000000  0.86500000  1
  H  H85  1  0.94840000  0.00000000  0.58800000  1
  H  H86  1  0.67600000  0.58810000  0.00000000  1
  H  H87  1  0.89240000  0.76320000  0.00000000  1
  H  H88  1  0.89230000  0.86500000  0.00000000  1
  H  H89  1  0.55160000  0.58800000  0.00000000  1
  H  H90  1  0.67600000  0.41190000  0.00000000  1
  H  H91  1  0.89240000  0.23680000  0.00000000  1
  H  H92  1  0.89230000  0.13500000  0.00000000  1
  H  H93  1  0.55780000  0.36170000  0.00000000  1
  H  H94  1  0.17600000  0.00000000  0.41190000  1
  H  H95  1  0.39240000  1.00000000  0.23680000  1
  H  H96  1  0.39230000  1.00000000  0.13500000  1
  H  H97  1  0.05160000  1.00000000  0.41200000  1
  H  H98  1  0.17600000  0.00000000  0.58810000  1
  H  H99  1  0.39240000  0.00000000  0.76320000  1
  H  H100  1  0.39230000  0.00000000  0.86500000  1
  H  H101  1  0.05780000  1.00000000  0.63830000  1
  C  C102  1  0.23070000  0.30210000  0.26180000  1
  C  C103  1  0.17520000  0.33690000  0.27950000  1
  C  C104  1  0.13910000  0.37130000  0.23860000  1
  C  C105  1  0.15760000  0.37040000  0.18200000  1
  C  C106  1  0.21330000  0.33610000  0.16430000  1
  C  C107  1  0.25040000  0.30380000  0.20530000  1
  C  C108  1  0.11710000  0.40430000  0.13730000  1
  C  C109  1  0.14360000  0.33240000  0.33880000  1
  C  C110  1  0.23070000  0.69790000  0.73820000  1
  C  C111  1  0.17520000  0.66310000  0.72050000  1
  C  C112  1  0.13910000  0.62870000  0.76140000  1
  C  C113  1  0.15760000  0.62960000  0.81800000  1
  C  C114  1  0.21330000  0.66390000  0.83570000  1
  C  C115  1  0.25040000  0.69620000  0.79470000  1
  C  C116  1  0.11710000  0.59570000  0.86270000  1
  C  C117  1  0.14360000  0.66760000  0.66120000  1
  C  C118  1  0.03920000  0.96977000  0.95870000  1
  C  C119  1  0.73070000  0.73820000  0.30210000  1
  C  C120  1  0.67520000  0.72050000  0.33690000  1
  C  C121  1  0.63910000  0.76140000  0.37130000  1
  C  C122  1  0.65760000  0.81800000  0.37040000  1
  C  C123  1  0.71330000  0.83570000  0.33610000  1
  C  C124  1  0.75040000  0.79470000  0.30380000  1
  C  C125  1  0.61710000  0.86270000  0.40430000  1
  C  C126  1  0.81200000  0.81820000  0.26910000  1
  C  C127  1  0.73070000  0.26180000  0.69790000  1
  C  C128  1  0.67520000  0.27950000  0.66310000  1
  C  C129  1  0.63910000  0.23860000  0.62870000  1
  C  C130  1  0.65760000  0.18200000  0.62960000  1
  C  C131  1  0.71330000  0.16430000  0.66390000  1
  C  C132  1  0.75040000  0.20530000  0.69620000  1
  C  C133  1  0.61710000  0.13730000  0.59570000  1
  C  C134  1  0.53920000  0.04130000  0.96977000  1
  C  C135  1  0.81200000  0.18180000  0.73090000  1
  C  C136  1  0.76930000  0.69790000  0.26180000  1
  C  C137  1  0.82480000  0.66310000  0.27950000  1
  C  C138  1  0.86090000  0.62870000  0.23860000  1
  C  C139  1  0.84240000  0.62960000  0.18200000  1
  C  C140  1  0.78670000  0.66390000  0.16430000  1
  C  C141  1  0.74960000  0.69620000  0.20530000  1
  C  C142  1  0.88290000  0.59570000  0.13730000  1
  C  C143  1  0.85640000  0.66760000  0.33880000  1
  C  C144  1  0.96080000  0.96977000  0.04130000  1
  C  C145  1  0.76930000  0.30210000  0.73820000  1
  C  C146  1  0.82480000  0.33690000  0.72050000  1
  C  C147  1  0.86090000  0.37130000  0.76140000  1
  C  C148  1  0.84240000  0.37040000  0.81800000  1
  C  C149  1  0.78670000  0.33610000  0.83570000  1
  C  C150  1  0.74960000  0.30380000  0.79470000  1
  C  C151  1  0.88290000  0.40430000  0.86270000  1
  C  C152  1  0.85640000  0.33240000  0.66120000  1
  C  C153  1  0.26930000  0.26180000  0.30210000  1
  C  C154  1  0.32480000  0.27950000  0.33690000  1
  C  C155  1  0.36090000  0.23860000  0.37130000  1
  C  C156  1  0.34240000  0.18200000  0.37040000  1
  C  C157  1  0.28670000  0.16430000  0.33610000  1
  C  C158  1  0.24960000  0.20530000  0.30380000  1
  C  C159  1  0.38290000  0.13730000  0.40430000  1
  C  C160  1  0.18800000  0.18180000  0.26910000  1
  C  C161  1  0.26930000  0.73820000  0.69790000  1
  C  C162  1  0.32480000  0.72050000  0.66310000  1
  C  C163  1  0.36090000  0.76140000  0.62870000  1
  C  C164  1  0.34240000  0.81800000  0.62960000  1
  C  C165  1  0.28670000  0.83570000  0.66390000  1
  C  C166  1  0.24960000  0.79470000  0.69620000  1
  C  C167  1  0.38290000  0.86270000  0.59570000  1
  C  C168  1  0.46080000  0.95870000  0.96977000  1
  C  C169  1  0.18800000  0.81820000  0.73090000  1
  C  C170  1  0.76930000  0.69790000  0.73820000  1
  C  C171  1  0.82480000  0.66310000  0.72050000  1
  C  C172  1  0.86090000  0.62870000  0.76140000  1
  C  C173  1  0.84240000  0.62960000  0.81800000  1
  C  C174  1  0.78670000  0.66390000  0.83570000  1
  C  C175  1  0.74960000  0.69620000  0.79470000  1
  C  C176  1  0.88290000  0.59570000  0.86270000  1
  C  C177  1  0.68800000  0.73090000  0.81820000  1
  C  C178  1  0.76930000  0.30210000  0.26180000  1
  C  C179  1  0.82480000  0.33690000  0.27950000  1
  C  C180  1  0.86090000  0.37130000  0.23860000  1
  C  C181  1  0.84240000  0.37040000  0.18200000  1
  C  C182  1  0.78670000  0.33610000  0.16430000  1
  C  C183  1  0.74960000  0.30380000  0.20530000  1
  C  C184  1  0.88290000  0.40430000  0.13730000  1
  C  C185  1  0.85640000  0.33240000  0.33880000  1
  C  C186  1  0.96080000  0.03023000  0.04130000  1
  C  C187  1  0.26930000  0.26180000  0.69790000  1
  C  C188  1  0.32480000  0.27950000  0.66310000  1
  C  C189  1  0.36090000  0.23860000  0.62870000  1
  C  C190  1  0.34240000  0.18200000  0.62960000  1
  C  C191  1  0.28670000  0.16430000  0.66390000  1
  C  C192  1  0.24960000  0.20530000  0.69620000  1
  C  C193  1  0.38290000  0.13730000  0.59570000  1
  C  C194  1  0.35640000  0.33880000  0.66760000  1
  C  C195  1  0.26930000  0.73820000  0.30210000  1
  C  C196  1  0.32480000  0.72050000  0.33690000  1
  C  C197  1  0.36090000  0.76140000  0.37130000  1
  C  C198  1  0.34240000  0.81800000  0.37040000  1
  C  C199  1  0.28670000  0.83570000  0.33610000  1
  C  C200  1  0.24960000  0.79470000  0.30380000  1
  C  C201  1  0.38290000  0.86270000  0.40430000  1
  C  C202  1  0.35640000  0.66120000  0.33240000  1
  C  C203  1  0.46080000  0.95870000  0.03023000  1
  C  C204  1  0.23070000  0.30210000  0.73820000  1
  C  C205  1  0.17520000  0.33690000  0.72050000  1
  C  C206  1  0.13910000  0.37130000  0.76140000  1
  C  C207  1  0.15760000  0.37040000  0.81800000  1
  C  C208  1  0.21330000  0.33610000  0.83570000  1
  C  C209  1  0.25040000  0.30380000  0.79470000  1
  C  C210  1  0.11710000  0.40430000  0.86270000  1
  C  C211  1  0.03920000  0.03023000  0.95870000  1
  C  C212  1  0.31200000  0.26910000  0.81820000  1
  C  C213  1  0.23070000  0.69790000  0.26180000  1
  C  C214  1  0.17520000  0.66310000  0.27950000  1
  C  C215  1  0.13910000  0.62870000  0.23860000  1
  C  C216  1  0.15760000  0.62960000  0.18200000  1
  C  C217  1  0.21330000  0.66390000  0.16430000  1
  C  C218  1  0.25040000  0.69620000  0.20530000  1
  C  C219  1  0.11710000  0.59570000  0.13730000  1
  C  C220  1  0.31200000  0.73090000  0.18180000  1
  C  C221  1  0.73070000  0.73820000  0.69790000  1
  C  C222  1  0.67520000  0.72050000  0.66310000  1
  C  C223  1  0.63910000  0.76140000  0.62870000  1
  C  C224  1  0.65760000  0.81800000  0.62960000  1
  C  C225  1  0.71330000  0.83570000  0.66390000  1
  C  C226  1  0.75040000  0.79470000  0.69620000  1
  C  C227  1  0.61710000  0.86270000  0.59570000  1
  C  C228  1  0.64360000  0.66120000  0.66760000  1
  C  C229  1  0.73070000  0.26180000  0.30210000  1
  C  C230  1  0.67520000  0.27950000  0.33690000  1
  C  C231  1  0.63910000  0.23860000  0.37130000  1
  C  C232  1  0.65760000  0.18200000  0.37040000  1
  C  C233  1  0.71330000  0.16430000  0.33610000  1
  C  C234  1  0.75040000  0.20530000  0.30380000  1
  C  C235  1  0.61710000  0.13730000  0.40430000  1
  C  C236  1  0.53920000  0.04130000  0.03023000  1
  C  C237  1  0.81200000  0.18180000  0.26910000  1
  C  C238  1  0.34910000  0.44758000  0.00000000  1
  C  C239  1  0.42310000  0.44768000  0.00000000  1
  C  C240  1  0.06400000  0.21610000  0.00000000  1
  C  C241  1  0.06400000  0.15560000  0.00000000  1
  C  C242  1  0.34910000  0.55242000  0.00000000  1
  C  C243  1  0.42310000  0.55232000  0.00000000  1
  C  C244  1  0.06400000  0.78390000  0.00000000  1
  C  C245  1  0.06400000  0.84440000  0.00000000  1
  C  C246  1  0.84910000  1.00000000  0.44758000  1
  C  C247  1  0.92310000  1.00000000  0.44768000  1
  C  C248  1  0.56400000  1.00000000  0.21610000  1
  C  C249  1  0.56400000  1.00000000  0.15560000  1
  C  C250  1  0.84910000  0.00000000  0.55242000  1
  C  C251  1  0.92310000  0.00000000  0.55232000  1
  C  C252  1  0.56400000  1.00000000  0.78390000  1
  C  C253  1  0.56400000  0.00000000  0.84440000  1
  C  C254  1  0.65090000  0.55242000  0.00000000  1
  C  C255  1  0.57690000  0.55232000  0.00000000  1
  C  C256  1  0.93600000  0.78390000  0.00000000  1
  C  C257  1  0.93600000  0.84440000  0.00000000  1
  C  C258  1  0.65090000  0.44758000  0.00000000  1
  C  C259  1  0.57690000  0.44768000  0.00000000  1
  C  C260  1  0.93600000  0.21610000  0.00000000  1
  C  C261  1  0.93600000  0.15560000  0.00000000  1
  C  C262  1  0.15090000  1.00000000  0.44758000  1
  C  C263  1  0.07690000  1.00000000  0.44768000  1
  C  C264  1  0.43600000  1.00000000  0.21610000  1
  C  C265  1  0.43600000  1.00000000  0.15560000  1
  C  C266  1  0.15090000  0.00000000  0.55242000  1
  C  C267  1  0.07690000  0.00000000  0.55232000  1
  C  C268  1  0.43600000  1.00000000  0.78390000  1
  C  C269  1  0.43600000  0.00000000  0.84440000  1
  C  C270  1  0.23440000  0.50000000  0.00000000  1
  C  C271  1  0.31200000  0.50000000  0.00000000  1
  C  C272  1  0.46020000  0.50000000  0.00000000  1
  C  C273  1  0.73440000  0.00000000  0.50000000  1
  C  C274  1  0.81200000  0.00000000  0.50000000  1
  C  C275  1  0.96020000  0.00000000  0.50000000  1
  C  C276  1  0.76560000  0.50000000  0.00000000  1
  C  C277  1  0.68800000  0.50000000  0.00000000  1
  C  C278  1  0.53980000  0.50000000  0.00000000  1
  C  C279  1  0.26560000  0.00000000  0.50000000  1
  C  C280  1  0.18800000  0.00000000  0.50000000  1
  C  C281  1  0.03980000  0.00000000  0.50000000  1
  C  C282  1  0.00000000  0.31060000  0.00000000  1
  C  C283  1  0.00000000  0.24610000  0.00000000  1
  C  C284  1  0.00000000  0.12540000  0.00000000  1
  C  C285  1  1.00000000  0.06043000  0.00000000  1
  C  C286  1  0.00000000  0.68940000  0.00000000  1
  C  C287  1  0.00000000  0.75390000  0.00000000  1
  C  C288  1  0.00000000  0.87460000  0.00000000  1
  C  C289  1  1.00000000  0.93957000  0.00000000  1
  C  C290  1  0.50000000  1.00000000  0.31060000  1
  C  C291  1  0.50000000  0.00000000  0.24610000  1
  C  C292  1  0.50000000  0.00000000  0.12540000  1
  C  C293  1  0.50000000  0.00000000  0.06043000  1
  C  C294  1  0.50000000  1.00000000  0.68940000  1
  C  C295  1  0.50000000  0.00000000  0.75390000  1
  C  C296  1  0.50000000  1.00000000  0.87460000  1
  C  C297  1  0.50000000  0.00000000  0.93957000  1
  N  N298  1  0.57830000  0.08250000  0.94100000  1
  N  N299  1  0.92170000  0.05900000  0.08250000  1
  O  O300  1  0.07250000  0.44140000  0.15634000  1
  O  O301  1  0.13260000  0.39290000  0.08510000  1
  O  O302  1  0.07250000  0.55860000  0.84366000  1
  O  O303  1  0.13260000  0.60710000  0.91490000  1
  O  O304  1  0.57250000  0.84366000  0.44140000  1
  O  O305  1  0.63260000  0.91490000  0.39290000  1
  O  O306  1  0.57250000  0.15634000  0.55860000  1
  O  O307  1  0.63260000  0.08510000  0.60710000  1
  O  O308  1  0.92750000  0.55860000  0.15634000  1
  O  O309  1  0.86740000  0.60710000  0.08510000  1
  O  O310  1  0.92750000  0.44140000  0.84366000  1
  O  O311  1  0.86740000  0.39290000  0.91490000  1
  O  O312  1  0.42750000  0.15634000  0.44140000  1
  O  O313  1  0.36740000  0.08510000  0.39290000  1
  O  O314  1  0.42750000  0.84366000  0.55860000  1
  O  O315  1  0.36740000  0.91490000  0.60710000  1
  O  O316  1  0.92750000  0.55860000  0.84366000  1
  O  O317  1  0.86740000  0.60710000  0.91490000  1
  O  O318  1  0.92750000  0.44140000  0.15634000  1
  O  O319  1  0.86740000  0.39290000  0.08510000  1
  O  O320  1  0.42750000  0.15634000  0.55860000  1
  O  O321  1  0.36740000  0.08510000  0.60710000  1
  O  O322  1  0.42750000  0.84366000  0.44140000  1
  O  O323  1  0.36740000  0.91490000  0.39290000  1
  O  O324  1  0.07250000  0.44140000  0.84366000  1
  O  O325  1  0.13260000  0.39290000  0.91490000  1
  O  O326  1  0.07250000  0.55860000  0.15634000  1
  O  O327  1  0.13260000  0.60710000  0.08510000  1
  O  O328  1  0.57250000  0.84366000  0.55860000  1
  O  O329  1  0.63260000  0.91490000  0.60710000  1
  O  O330  1  0.57250000  0.15634000  0.44140000  1
  O  O331  1  0.63260000  0.08510000  0.39290000  1
  O  O332  1  0.20530000  0.43850000  0.00000000  1
  O  O333  1  0.06510000  0.33160000  0.00000000  1
  O  O334  1  0.20530000  0.56150000  0.00000000  1
  O  O335  1  0.45900000  0.60450000  0.00000000  1
  O  O336  1  0.06510000  0.66840000  0.00000000  1
  O  O337  1  0.70530000  0.00000000  0.43850000  1
  O  O338  1  0.95900000  1.00000000  0.39550000  1
  O  O339  1  0.56510000  0.00000000  0.33160000  1
  O  O340  1  0.70530000  1.00000000  0.56150000  1
  O  O341  1  0.56510000  1.00000000  0.66840000  1
  O  O342  1  0.79470000  0.56150000  0.00000000  1
  O  O343  1  0.93490000  0.66840000  0.00000000  1
  O  O344  1  0.79470000  0.43850000  0.00000000  1
  O  O345  1  0.54100000  0.39550000  0.00000000  1
  O  O346  1  0.93490000  0.33160000  0.00000000  1
  O  O347  1  0.29470000  0.00000000  0.43850000  1
  O  O348  1  0.43490000  0.00000000  0.33160000  1
  O  O349  1  0.29470000  1.00000000  0.56150000  1
  O  O350  1  0.04100000  0.00000000  0.60450000  1
  O  O351  1  0.43490000  1.00000000  0.66840000  1
  O  O352  1  0.09320000  0.50000000  0.05300000  1
  O  O353  1  0.09320000  0.50000000  0.94700000  1
  O  O354  1  0.59320000  0.94700000  0.50000000  1
  O  O355  1  0.59320000  0.05300000  0.50000000  1
  O  O356  1  0.90680000  0.50000000  0.05300000  1
  O  O357  1  0.90680000  0.50000000  0.94700000  1
  O  O358  1  0.40680000  0.05300000  0.50000000  1
  O  O359  1  0.40680000  0.94700000  0.50000000  1
  O  O360  1  0.00000000  0.42480000  0.05380000  1
  O  O361  1  0.00000000  0.57520000  0.94620000  1
  O  O362  1  0.50000000  0.94620000  0.42480000  1
  O  O363  1  0.50000000  0.05380000  0.57520000  1
  O  O364  1  0.00000000  0.57520000  0.05380000  1
  O  O365  1  0.00000000  0.42480000  0.94620000  1
  O  O366  1  0.50000000  0.05380000  0.42480000  1
  O  O367  1  0.50000000  0.94620000  0.57520000  1
  F  F368  1  0.18790000  0.34170000  0.38310000  1
  F  F369  1  0.11430000  0.28040000  0.35210000  1
  F  F370  1  0.08930000  0.36910000  0.34970000  1
  F  F371  1  0.18790000  0.65830000  0.61690000  1
  F  F372  1  0.11430000  0.71960000  0.64790000  1
  F  F373  1  0.08930000  0.63090000  0.65030000  1
  F  F374  1  0.82240000  0.87540000  0.27550000  1
  F  F375  1  0.87490000  0.79530000  0.28220000  1
  F  F376  1  0.80490000  0.81200000  0.21200000  1
  F  F377  1  0.82240000  0.12460000  0.72450000  1
  F  F378  1  0.87490000  0.20470000  0.71780000  1
  F  F379  1  0.80490000  0.18800000  0.78800000  1
  F  F380  1  0.81210000  0.65830000  0.38310000  1
  F  F381  1  0.88570000  0.71960000  0.35210000  1
  F  F382  1  0.91070000  0.63090000  0.34970000  1
  F  F383  1  0.81210000  0.34170000  0.61690000  1
  F  F384  1  0.88570000  0.28040000  0.64790000  1
  F  F385  1  0.91070000  0.36910000  0.65030000  1
  F  F386  1  0.17760000  0.12460000  0.27550000  1
  F  F387  1  0.12510000  0.20470000  0.28220000  1
  F  F388  1  0.19510000  0.18800000  0.21200000  1
  F  F389  1  0.17760000  0.87540000  0.72450000  1
  F  F390  1  0.12510000  0.79530000  0.71780000  1
  F  F391  1  0.19510000  0.81200000  0.78800000  1
  F  F392  1  0.67760000  0.72450000  0.87540000  1
  F  F393  1  0.62510000  0.71780000  0.79530000  1
  F  F394  1  0.69510000  0.78800000  0.81200000  1
  F  F395  1  0.81210000  0.34170000  0.38310000  1
  F  F396  1  0.88570000  0.28040000  0.35210000  1
  F  F397  1  0.91070000  0.36910000  0.34970000  1
  F  F398  1  0.31210000  0.38310000  0.65830000  1
  F  F399  1  0.38570000  0.35210000  0.71960000  1
  F  F400  1  0.41070000  0.34970000  0.63090000  1
  F  F401  1  0.31210000  0.61690000  0.34170000  1
  F  F402  1  0.38570000  0.64790000  0.28040000  1
  F  F403  1  0.41070000  0.65030000  0.36910000  1
  F  F404  1  0.32240000  0.27550000  0.87540000  1
  F  F405  1  0.37490000  0.28220000  0.79530000  1
  F  F406  1  0.30490000  0.21200000  0.81200000  1
  F  F407  1  0.32240000  0.72450000  0.12460000  1
  F  F408  1  0.37490000  0.71780000  0.20470000  1
  F  F409  1  0.30490000  0.78800000  0.18800000  1
  F  F410  1  0.68790000  0.61690000  0.65830000  1
  F  F411  1  0.61430000  0.64790000  0.71960000  1
  F  F412  1  0.58930000  0.65030000  0.63090000  1
  F  F413  1  0.82240000  0.12460000  0.27550000  1
  F  F414  1  0.87490000  0.20470000  0.28220000  1
  F  F415  1  0.80490000  0.18800000  0.21200000  1
