# generated using pymatgen
data_Zr12H100C203(O32F25)2
_symmetry_space_group_name_H-M   'P 1'
_cell_length_a   18.82460000
_cell_length_b   23.06390000
_cell_length_c   23.06390000
_cell_angle_alpha   90.00000000
_cell_angle_beta   90.00000000
_cell_angle_gamma   90.00000000
_symmetry_Int_Tables_number   1
_chemical_formula_structural   Zr12H100C203(O32F25)2
_chemical_formula_sum   'Zr12 H100 C203 O64 F50'
_cell_volume   10013.62329403
_cell_formula_units_Z   1
loop_
 _symmetry_equiv_pos_site_id
 _symmetry_equiv_pos_as_xyz
  1  'x, y, z'
loop_
 _atom_site_type_symbol
 _atom_site_label
 _atom_site_symmetry_multiplicity
 _atom_site_fract_x
 _atom_site_fract_y
 _atom_site_fract_z
 _atom_site_occupancy
  Zr  Zr0  1  0.09257000  0.00000000  0.42434000  1
  Zr  Zr1  1  0.09257000  0.00000000  0.57566000  1
  Zr  Zr2  1  0.59257000  0.57566000  0.00000000  1
  Zr  Zr3  1  0.59257000  0.42434000  0.00000000  1
  Zr  Zr4  1  0.90743000  0.00000000  0.42434000  1
  Zr  Zr5  1  0.90743000  0.00000000  0.57566000  1
  Zr  Zr6  1  0.40743000  0.42434000  0.00000000  1
  Zr  Zr7  1  0.40743000  0.57566000  0.00000000  1
  Zr  Zr8  1  0.00000000  0.10781000  0.50000000  1
  Zr  Zr9  1  1.00000000  0.89219000  0.50000000  1
  Zr  Zr10  1  0.50000000  0.50000000  0.10781000  1
  Zr  Zr11  1  0.50000000  0.50000000  0.89219000  1
  H  H12  1  0.09980000  0.25150000  0.39350000  1
  H  H13  1  0.22660000  0.12450000  0.33390000  1
  H  H14  1  0.32360000  0.03470000  0.58090000  1
  H  H15  1  0.16090000  0.31760000  0.33560000  1
  H  H16  1  0.44800000  0.03470000  0.58090000  1
  H  H17  1  0.09980000  0.74850000  0.60650000  1
  H  H18  1  0.22660000  0.87550000  0.66610000  1
  H  H19  1  0.28680000  0.80860000  0.72290000  1
  H  H20  1  0.32360000  0.96530000  0.41910000  1
  H  H21  1  0.44800000  0.96530000  0.41910000  1
  H  H22  1  0.59980000  0.60650000  0.25150000  1
  H  H23  1  0.72660000  0.66610000  0.12450000  1
  H  H24  1  0.78680000  0.72290000  0.19140000  1
  H  H25  1  0.59980000  0.39350000  0.74850000  1
  H  H26  1  0.72660000  0.33390000  0.87550000  1
  H  H27  1  0.78680000  0.27710000  0.80860000  1
  H  H28  1  0.90020000  0.74850000  0.39350000  1
  H  H29  1  0.77340000  0.87550000  0.33390000  1
  H  H30  1  0.67640000  0.96530000  0.58090000  1
  H  H31  1  0.04250000  0.88730000  0.08570000  1
  H  H32  1  0.83910000  0.68240000  0.33560000  1
  H  H33  1  0.55200000  0.96530000  0.58090000  1
  H  H34  1  0.90020000  0.25150000  0.60650000  1
  H  H35  1  0.77340000  0.12450000  0.66610000  1
  H  H36  1  0.67640000  0.03470000  0.41910000  1
  H  H37  1  0.04250000  0.11270000  0.91430000  1
  H  H38  1  0.83910000  0.31760000  0.66440000  1
  H  H39  1  0.55110000  0.08360000  0.39310000  1
  H  H40  1  0.55110000  0.01990000  0.36580000  1
  H  H41  1  0.48690000  0.04020000  0.40650000  1
  H  H42  1  0.40020000  0.39350000  0.25150000  1
  H  H43  1  0.27340000  0.33390000  0.12450000  1
  H  H44  1  0.21320000  0.27710000  0.19140000  1
  H  H45  1  0.54250000  0.08570000  0.11270000  1
  H  H46  1  0.40020000  0.60650000  0.74850000  1
  H  H47  1  0.27340000  0.66610000  0.87550000  1
  H  H48  1  0.54250000  0.91430000  0.88730000  1
  H  H49  1  0.33910000  0.66440000  0.68240000  1
  H  H50  1  0.90020000  0.74850000  0.60650000  1
  H  H51  1  0.77340000  0.87550000  0.66610000  1
  H  H52  1  0.71320000  0.80860000  0.72290000  1
  H  H53  1  0.90020000  0.25150000  0.39350000  1
  H  H54  1  0.77340000  0.12450000  0.33390000  1
  H  H55  1  0.71320000  0.19140000  0.27710000  1
  H  H56  1  0.40020000  0.39350000  0.74850000  1
  H  H57  1  0.27340000  0.33390000  0.87550000  1
  H  H58  1  0.21320000  0.27710000  0.80860000  1
  H  H59  1  0.17640000  0.58090000  0.96530000  1
  H  H60  1  0.05200000  0.58090000  0.96530000  1
  H  H61  1  0.40020000  0.60650000  0.25150000  1
  H  H62  1  0.27340000  0.66610000  0.12450000  1
  H  H63  1  0.17640000  0.41910000  0.03470000  1
  H  H64  1  0.33910000  0.66440000  0.31760000  1
  H  H65  1  0.05200000  0.41910000  0.03470000  1
  H  H66  1  0.09980000  0.25150000  0.60650000  1
  H  H67  1  0.22660000  0.12450000  0.66610000  1
  H  H68  1  0.95750000  0.11270000  0.91430000  1
  H  H69  1  0.16090000  0.31760000  0.66440000  1
  H  H70  1  0.09980000  0.74850000  0.39350000  1
  H  H71  1  0.22660000  0.87550000  0.33390000  1
  H  H72  1  0.28680000  0.80860000  0.27710000  1
  H  H73  1  0.95750000  0.88730000  0.08570000  1
  H  H74  1  0.59980000  0.60650000  0.74850000  1
  H  H75  1  0.72660000  0.66610000  0.87550000  1
  H  H76  1  0.82360000  0.41910000  0.96530000  1
  H  H77  1  0.45750000  0.91430000  0.88730000  1
  H  H78  1  0.66090000  0.66440000  0.68240000  1
  H  H79  1  0.94890000  0.39310000  0.91640000  1
  H  H80  1  0.94890000  0.36580000  0.98010000  1
  H  H81  1  0.01310000  0.40650000  0.95980000  1
  H  H82  1  0.59980000  0.39350000  0.25150000  1
  H  H83  1  0.72660000  0.33390000  0.12450000  1
  H  H84  1  0.82360000  0.58090000  0.03470000  1
  H  H85  1  0.45750000  0.08570000  0.11270000  1
  H  H86  1  0.66090000  0.33560000  0.31760000  1
  H  H87  1  0.94800000  0.58090000  0.03470000  1
  H  H88  1  0.10770000  0.00000000  0.23640000  1
  H  H89  1  0.10760000  0.00000000  0.13440000  1
  H  H90  1  0.10770000  0.00000000  0.76360000  1
  H  H91  1  0.10760000  0.00000000  0.86560000  1
  H  H92  1  0.60770000  0.76360000  0.00000000  1
  H  H93  1  0.60760000  0.86560000  0.00000000  1
  H  H94  1  0.60770000  0.23640000  0.00000000  1
  H  H95  1  0.60760000  0.13440000  0.00000000  1
  H  H96  1  0.89230000  0.00000000  0.23640000  1
  H  H97  1  0.89240000  0.00000000  0.13440000  1
  H  H98  1  0.89230000  0.00000000  0.76360000  1
  H  H99  1  0.89240000  0.00000000  0.86560000  1
  H  H100  1  0.39230000  0.23640000  0.00000000  1
  H  H101  1  0.39240000  0.13440000  0.00000000  1
  H  H102  1  0.39230000  0.76360000  0.00000000  1
  H  H103  1  0.39240000  0.86560000  0.00000000  1
  H  H104  1  1.00000000  0.08790000  0.05080000  1
  H  H105  1  1.00000000  0.91210000  0.94920000  1
  H  H106  1  0.50000000  0.94920000  0.08790000  1
  H  H107  1  0.50000000  0.05080000  0.91210000  1
  H  H108  1  0.00000000  0.85870000  0.03280000  1
  H  H109  1  0.00000000  0.14130000  0.96720000  1
  H  H110  1  0.50000000  0.03280000  0.14130000  1
  H  H111  1  0.50000000  0.96720000  0.85870000  1
  C  C112  1  0.23050000  0.26110000  0.30030000  1
  C  C113  1  0.17470000  0.27800000  0.33520000  1
  C  C114  1  0.13800000  0.23870000  0.36980000  1
  C  C115  1  0.15740000  0.18140000  0.36940000  1
  C  C116  1  0.21280000  0.16410000  0.33470000  1
  C  C117  1  0.24860000  0.20410000  0.30070000  1
  C  C118  1  0.11610000  0.13720000  0.40370000  1
  C  C119  1  0.34890000  0.02060000  0.54810000  1
  C  C120  1  0.42290000  0.02060000  0.54810000  1
  C  C121  1  0.30760000  0.17700000  0.26640000  1
  C  C122  1  0.23050000  0.73890000  0.69970000  1
  C  C123  1  0.17470000  0.72200000  0.66480000  1
  C  C124  1  0.13800000  0.76130000  0.63020000  1
  C  C125  1  0.15740000  0.81860000  0.63060000  1
  C  C126  1  0.21280000  0.83590000  0.66530000  1
  C  C127  1  0.24860000  0.79590000  0.69930000  1
  C  C128  1  0.11610000  0.86280000  0.59630000  1
  C  C129  1  0.14830000  0.66070000  0.66120000  1
  C  C130  1  0.34890000  0.97940000  0.45190000  1
  C  C131  1  0.42290000  0.97940000  0.45190000  1
  C  C132  1  0.30760000  0.82300000  0.73360000  1
  C  C133  1  0.73050000  0.69970000  0.26110000  1
  C  C134  1  0.67470000  0.66480000  0.27800000  1
  C  C135  1  0.63800000  0.63020000  0.23870000  1
  C  C136  1  0.65740000  0.63060000  0.18140000  1
  C  C137  1  0.71280000  0.66530000  0.16410000  1
  C  C138  1  0.74860000  0.69930000  0.20410000  1
  C  C139  1  0.61610000  0.59630000  0.13720000  1
  C  C140  1  0.64830000  0.66120000  0.33930000  1
  C  C141  1  0.73050000  0.30030000  0.73890000  1
  C  C142  1  0.67470000  0.33520000  0.72200000  1
  C  C143  1  0.63800000  0.36980000  0.76130000  1
  C  C144  1  0.65740000  0.36940000  0.81860000  1
  C  C145  1  0.71280000  0.33470000  0.83590000  1
  C  C146  1  0.74860000  0.30070000  0.79590000  1
  C  C147  1  0.61610000  0.40370000  0.86280000  1
  C  C148  1  0.64830000  0.33880000  0.66070000  1
  C  C149  1  0.76950000  0.73890000  0.30030000  1
  C  C150  1  0.82530000  0.72200000  0.33520000  1
  C  C151  1  0.86200000  0.76130000  0.36980000  1
  C  C152  1  0.84260000  0.81860000  0.36940000  1
  C  C153  1  0.78720000  0.83590000  0.33470000  1
  C  C154  1  0.75140000  0.79590000  0.30070000  1
  C  C155  1  0.88390000  0.86280000  0.40370000  1
  C  C156  1  0.65110000  0.97940000  0.54810000  1
  C  C157  1  0.57710000  0.97940000  0.54810000  1
  C  C158  1  0.69240000  0.82300000  0.26640000  1
  C  C159  1  0.76950000  0.26110000  0.69970000  1
  C  C160  1  0.82530000  0.27800000  0.66480000  1
  C  C161  1  0.86200000  0.23870000  0.63020000  1
  C  C162  1  0.84260000  0.18140000  0.63060000  1
  C  C163  1  0.78720000  0.16410000  0.66530000  1
  C  C164  1  0.75140000  0.20410000  0.69930000  1
  C  C165  1  0.88390000  0.13720000  0.59630000  1
  C  C166  1  0.65110000  0.02060000  0.45190000  1
  C  C167  1  0.57710000  0.02060000  0.45190000  1
  C  C168  1  0.53810000  0.04300000  0.39980000  1
  C  C169  1  0.69240000  0.17700000  0.73360000  1
  C  C170  1  0.26950000  0.30030000  0.26110000  1
  C  C171  1  0.32530000  0.33520000  0.27800000  1
  C  C172  1  0.36200000  0.36980000  0.23870000  1
  C  C173  1  0.34260000  0.36940000  0.18140000  1
  C  C174  1  0.28720000  0.33470000  0.16410000  1
  C  C175  1  0.25140000  0.30070000  0.20410000  1
  C  C176  1  0.38390000  0.40370000  0.13720000  1
  C  C177  1  0.35170000  0.33880000  0.33930000  1
  C  C178  1  0.26950000  0.69970000  0.73890000  1
  C  C179  1  0.32530000  0.66480000  0.72200000  1
  C  C180  1  0.36200000  0.63020000  0.76130000  1
  C  C181  1  0.34260000  0.63060000  0.81860000  1
  C  C182  1  0.28720000  0.66530000  0.83590000  1
  C  C183  1  0.25140000  0.69930000  0.79590000  1
  C  C184  1  0.38390000  0.59630000  0.86280000  1
  C  C185  1  0.19240000  0.73360000  0.82300000  1
  C  C186  1  0.76950000  0.73890000  0.69970000  1
  C  C187  1  0.82530000  0.72200000  0.66480000  1
  C  C188  1  0.86200000  0.76130000  0.63020000  1
  C  C189  1  0.84260000  0.81860000  0.63060000  1
  C  C190  1  0.78720000  0.83590000  0.66530000  1
  C  C191  1  0.75140000  0.79590000  0.69930000  1
  C  C192  1  0.88390000  0.86280000  0.59630000  1
  C  C193  1  0.85170000  0.66070000  0.66120000  1
  C  C194  1  0.76950000  0.26110000  0.30030000  1
  C  C195  1  0.82530000  0.27800000  0.33520000  1
  C  C196  1  0.86200000  0.23870000  0.36980000  1
  C  C197  1  0.84260000  0.18140000  0.36940000  1
  C  C198  1  0.78720000  0.16410000  0.33470000  1
  C  C199  1  0.75140000  0.20410000  0.30070000  1
  C  C200  1  0.88390000  0.13720000  0.40370000  1
  C  C201  1  0.85170000  0.33930000  0.33880000  1
  C  C202  1  0.26950000  0.30030000  0.73890000  1
  C  C203  1  0.32530000  0.33520000  0.72200000  1
  C  C204  1  0.36200000  0.36980000  0.76130000  1
  C  C205  1  0.34260000  0.36940000  0.81860000  1
  C  C206  1  0.28720000  0.33470000  0.83590000  1
  C  C207  1  0.25140000  0.30070000  0.79590000  1
  C  C208  1  0.38390000  0.40370000  0.86280000  1
  C  C209  1  0.35170000  0.33880000  0.66070000  1
  C  C210  1  0.15110000  0.54810000  0.97940000  1
  C  C211  1  0.07710000  0.54810000  0.97940000  1
  C  C212  1  0.26950000  0.69970000  0.26110000  1
  C  C213  1  0.32530000  0.66480000  0.27800000  1
  C  C214  1  0.36200000  0.63020000  0.23870000  1
  C  C215  1  0.34260000  0.63060000  0.18140000  1
  C  C216  1  0.28720000  0.66530000  0.16410000  1
  C  C217  1  0.25140000  0.69930000  0.20410000  1
  C  C218  1  0.38390000  0.59630000  0.13720000  1
  C  C219  1  0.15110000  0.45190000  0.02060000  1
  C  C220  1  0.07710000  0.45190000  0.02060000  1
  C  C221  1  0.19240000  0.73360000  0.17700000  1
  C  C222  1  0.23050000  0.26110000  0.69970000  1
  C  C223  1  0.17470000  0.27800000  0.66480000  1
  C  C224  1  0.13800000  0.23870000  0.63020000  1
  C  C225  1  0.15740000  0.18140000  0.63060000  1
  C  C226  1  0.21280000  0.16410000  0.66530000  1
  C  C227  1  0.24860000  0.20410000  0.69930000  1
  C  C228  1  0.11610000  0.13720000  0.59630000  1
  C  C229  1  0.30760000  0.17700000  0.73360000  1
  C  C230  1  0.23050000  0.73890000  0.30030000  1
  C  C231  1  0.17470000  0.72200000  0.33520000  1
  C  C232  1  0.13800000  0.76130000  0.36980000  1
  C  C233  1  0.15740000  0.81860000  0.36940000  1
  C  C234  1  0.21280000  0.83590000  0.33470000  1
  C  C235  1  0.24860000  0.79590000  0.30070000  1
  C  C236  1  0.11610000  0.86280000  0.40370000  1
  C  C237  1  0.14830000  0.66070000  0.33880000  1
  C  C238  1  0.73050000  0.69970000  0.73890000  1
  C  C239  1  0.67470000  0.66480000  0.72200000  1
  C  C240  1  0.63800000  0.63020000  0.76130000  1
  C  C241  1  0.65740000  0.63060000  0.81860000  1
  C  C242  1  0.71280000  0.66530000  0.83590000  1
  C  C243  1  0.74860000  0.69930000  0.79590000  1
  C  C244  1  0.61610000  0.59630000  0.86280000  1
  C  C245  1  0.84890000  0.45190000  0.97940000  1
  C  C246  1  0.92290000  0.45190000  0.97940000  1
  C  C247  1  0.96190000  0.39980000  0.95700000  1
  C  C248  1  0.80760000  0.73360000  0.82300000  1
  C  C249  1  0.73050000  0.30030000  0.26110000  1
  C  C250  1  0.67470000  0.33520000  0.27800000  1
  C  C251  1  0.63800000  0.36980000  0.23870000  1
  C  C252  1  0.65740000  0.36940000  0.18140000  1
  C  C253  1  0.71280000  0.33470000  0.16410000  1
  C  C254  1  0.74860000  0.30070000  0.20410000  1
  C  C255  1  0.61610000  0.40370000  0.13720000  1
  C  C256  1  0.84890000  0.54810000  0.02060000  1
  C  C257  1  0.92290000  0.54810000  0.02060000  1
  C  C258  1  0.80760000  0.26640000  0.17700000  1
  C  C259  1  0.06410000  0.00000000  0.21580000  1
  C  C260  1  0.06400000  0.00000000  0.15510000  1
  C  C261  1  0.06410000  0.00000000  0.78420000  1
  C  C262  1  0.06400000  0.00000000  0.84490000  1
  C  C263  1  0.56410000  0.78420000  0.00000000  1
  C  C264  1  0.56400000  0.84490000  0.00000000  1
  C  C265  1  0.56410000  0.21580000  0.00000000  1
  C  C266  1  0.56400000  0.15510000  0.00000000  1
  C  C267  1  0.93590000  0.00000000  0.21580000  1
  C  C268  1  0.93600000  0.00000000  0.15510000  1
  C  C269  1  0.93590000  0.00000000  0.78420000  1
  C  C270  1  0.93600000  0.00000000  0.84490000  1
  C  C271  1  0.43590000  0.21580000  0.00000000  1
  C  C272  1  0.43600000  0.15510000  0.00000000  1
  C  C273  1  0.43590000  0.78420000  0.00000000  1
  C  C274  1  0.43600000  0.84490000  0.00000000  1
  C  C275  1  0.00000000  0.05225000  0.03021000  1
  C  C276  1  0.00000000  0.94775000  0.96979000  1
  C  C277  1  0.50000000  0.96979000  0.05225000  1
  C  C278  1  0.50000000  0.03021000  0.94775000  1
  C  C279  1  0.00000000  0.94775000  0.03021000  1
  C  C280  1  0.00000000  0.89020000  0.06130000  1
  C  C281  1  0.00000000  0.05225000  0.96979000  1
  C  C282  1  0.00000000  0.10980000  0.93870000  1
  C  C283  1  0.50000000  0.03021000  0.05225000  1
  C  C284  1  0.50000000  0.06130000  0.10980000  1
  C  C285  1  0.50000000  0.96979000  0.94775000  1
  C  C286  1  0.50000000  0.93870000  0.89020000  1
  C  C287  1  0.23250000  0.00000000  0.50000000  1
  C  C288  1  0.31200000  0.00000000  0.50000000  1
  C  C289  1  0.46020000  0.00000000  0.50000000  1
  C  C290  1  0.73250000  0.50000000  0.00000000  1
  C  C291  1  0.81200000  0.50000000  0.00000000  1
  C  C292  1  0.96020000  0.50000000  0.00000000  1
  C  C293  1  0.76750000  0.00000000  0.50000000  1
  C  C294  1  0.68800000  0.00000000  0.50000000  1
  C  C295  1  0.53980000  0.00000000  0.50000000  1
  C  C296  1  0.26750000  0.50000000  0.00000000  1
  C  C297  1  0.18800000  0.50000000  0.00000000  1
  C  C298  1  0.03980000  0.50000000  0.00000000  1
  C  C299  1  0.00000000  0.00000000  0.31010000  1
  C  C300  1  0.00000000  0.00000000  0.24570000  1
  C  C301  1  0.00000000  0.00000000  0.12510000  1
  C  C302  1  0.00000000  0.00000000  0.06043000  1
  C  C303  1  0.00000000  0.00000000  0.68990000  1
  C  C304  1  0.00000000  0.00000000  0.75430000  1
  C  C305  1  0.00000000  0.00000000  0.87490000  1
  C  C306  1  0.00000000  0.00000000  0.93957000  1
  C  C307  1  0.50000000  0.68990000  0.00000000  1
  C  C308  1  0.50000000  0.75430000  0.00000000  1
  C  C309  1  0.50000000  0.87490000  0.00000000  1
  C  C310  1  0.50000000  0.93957000  0.00000000  1
  C  C311  1  0.50000000  0.31010000  0.00000000  1
  C  C312  1  0.50000000  0.24570000  0.00000000  1
  C  C313  1  0.50000000  0.12510000  0.00000000  1
  C  C314  1  0.50000000  0.06043000  0.00000000  1
  O  O315  1  0.13270000  0.08470000  0.39200000  1
  O  O316  1  0.07250000  0.15670000  0.44160000  1
  O  O317  1  0.13270000  0.91530000  0.60800000  1
  O  O318  1  0.07250000  0.84330000  0.55840000  1
  O  O319  1  0.63270000  0.60800000  0.08470000  1
  O  O320  1  0.57250000  0.55840000  0.15670000  1
  O  O321  1  0.63270000  0.39200000  0.91530000  1
  O  O322  1  0.57250000  0.44160000  0.84330000  1
  O  O323  1  0.86730000  0.91530000  0.39200000  1
  O  O324  1  0.92750000  0.84330000  0.44160000  1
  O  O325  1  0.86730000  0.08470000  0.60800000  1
  O  O326  1  0.92750000  0.15670000  0.55840000  1
  O  O327  1  0.36730000  0.39200000  0.08470000  1
  O  O328  1  0.42750000  0.44160000  0.15670000  1
  O  O329  1  0.36730000  0.60800000  0.91530000  1
  O  O330  1  0.42750000  0.55840000  0.84330000  1
  O  O331  1  0.86730000  0.91530000  0.60800000  1
  O  O332  1  0.92750000  0.84330000  0.55840000  1
  O  O333  1  0.86730000  0.08470000  0.39200000  1
  O  O334  1  0.92750000  0.15670000  0.44160000  1
  O  O335  1  0.36730000  0.39200000  0.91530000  1
  O  O336  1  0.42750000  0.44160000  0.84330000  1
  O  O337  1  0.36730000  0.60800000  0.08470000  1
  O  O338  1  0.42750000  0.55840000  0.15670000  1
  O  O339  1  0.13270000  0.08470000  0.60800000  1
  O  O340  1  0.07250000  0.15670000  0.55840000  1
  O  O341  1  0.13270000  0.91530000  0.39200000  1
  O  O342  1  0.07250000  0.84330000  0.44160000  1
  O  O343  1  0.63270000  0.60800000  0.91530000  1
  O  O344  1  0.57250000  0.55840000  0.84330000  1
  O  O345  1  0.63270000  0.39200000  0.08470000  1
  O  O346  1  0.57250000  0.44160000  0.15670000  1
  O  O347  1  0.20750000  0.00000000  0.43990000  1
  O  O348  1  0.06230000  1.00000000  0.33170000  1
  O  O349  1  0.20750000  0.00000000  0.56010000  1
  O  O350  1  0.06230000  0.00000000  0.66830000  1
  O  O351  1  0.70750000  0.56010000  0.00000000  1
  O  O352  1  0.56230000  0.66830000  0.00000000  1
  O  O353  1  0.70750000  0.43990000  0.00000000  1
  O  O354  1  0.56230000  0.33170000  0.00000000  1
  O  O355  1  0.79250000  0.00000000  0.43990000  1
  O  O356  1  0.93770000  1.00000000  0.33170000  1
  O  O357  1  0.79250000  0.00000000  0.56010000  1
  O  O358  1  0.93770000  0.00000000  0.66830000  1
  O  O359  1  0.29250000  0.43990000  0.00000000  1
  O  O360  1  0.43770000  0.33170000  0.00000000  1
  O  O361  1  0.29250000  0.56010000  0.00000000  1
  O  O362  1  0.43770000  0.66830000  0.00000000  1
  O  O363  1  0.09260000  0.05310000  0.50000000  1
  O  O364  1  0.09260000  0.94690000  0.50000000  1
  O  O365  1  0.59260000  0.50000000  0.05310000  1
  O  O366  1  0.59260000  0.50000000  0.94690000  1
  O  O367  1  0.90740000  0.94690000  0.50000000  1
  O  O368  1  0.90740000  0.05310000  0.50000000  1
  O  O369  1  0.40740000  0.50000000  0.05310000  1
  O  O370  1  0.40740000  0.50000000  0.94690000  1
  O  O371  1  0.00000000  0.05410000  0.42490000  1
  O  O372  1  1.00000000  0.94590000  0.57510000  1
  O  O373  1  0.50000000  0.57510000  0.05410000  1
  O  O374  1  0.50000000  0.42490000  0.94590000  1
  O  O375  1  0.00000000  0.94590000  0.42490000  1
  O  O376  1  0.00000000  0.05410000  0.57510000  1
  O  O377  1  0.50000000  0.42490000  0.05410000  1
  O  O378  1  0.50000000  0.57510000  0.94590000  1
  F  F379  1  0.33530000  0.20430000  0.20970000  1
  F  F380  1  0.38180000  0.17070000  0.29660000  1
  F  F381  1  0.30200000  0.11400000  0.24470000  1
  F  F382  1  0.19690000  0.60910000  0.65460000  1
  F  F383  1  0.10640000  0.64000000  0.71740000  1
  F  F384  1  0.08950000  0.64330000  0.61820000  1
  F  F385  1  0.33530000  0.79570000  0.79030000  1
  F  F386  1  0.38180000  0.82930000  0.70340000  1
  F  F387  1  0.69690000  0.65460000  0.39090000  1
  F  F388  1  0.60640000  0.71740000  0.36000000  1
  F  F389  1  0.58950000  0.61820000  0.35670000  1
  F  F390  1  0.69690000  0.34540000  0.60910000  1
  F  F391  1  0.60640000  0.28260000  0.64000000  1
  F  F392  1  0.58950000  0.38180000  0.64330000  1
  F  F393  1  0.66470000  0.79570000  0.20970000  1
  F  F394  1  0.61820000  0.82930000  0.29660000  1
  F  F395  1  0.69800000  0.88600000  0.24470000  1
  F  F396  1  0.66470000  0.20430000  0.79030000  1
  F  F397  1  0.61820000  0.17070000  0.70340000  1
  F  F398  1  0.69800000  0.11400000  0.75530000  1
  F  F399  1  0.30310000  0.34540000  0.39090000  1
  F  F400  1  0.39360000  0.28260000  0.36000000  1
  F  F401  1  0.41050000  0.38180000  0.35670000  1
  F  F402  1  0.16470000  0.79030000  0.79570000  1
  F  F403  1  0.11820000  0.70340000  0.82930000  1
  F  F404  1  0.19800000  0.75530000  0.88600000  1
  F  F405  1  0.80310000  0.60910000  0.65460000  1
  F  F406  1  0.89360000  0.64000000  0.71740000  1
  F  F407  1  0.91050000  0.64330000  0.61820000  1
  F  F408  1  0.80310000  0.39090000  0.34540000  1
  F  F409  1  0.89360000  0.36000000  0.28260000  1
  F  F410  1  0.91050000  0.35670000  0.38180000  1
  F  F411  1  0.30310000  0.34540000  0.60910000  1
  F  F412  1  0.39360000  0.28260000  0.64000000  1
  F  F413  1  0.41050000  0.38180000  0.64330000  1
  F  F414  1  0.16470000  0.79030000  0.20430000  1
  F  F415  1  0.11820000  0.70340000  0.17070000  1
  F  F416  1  0.19800000  0.75530000  0.11400000  1
  F  F417  1  0.33530000  0.20430000  0.79030000  1
  F  F418  1  0.38180000  0.17070000  0.70340000  1
  F  F419  1  0.30200000  0.11400000  0.75530000  1
  F  F420  1  0.19690000  0.60910000  0.34540000  1
  F  F421  1  0.10640000  0.64000000  0.28260000  1
  F  F422  1  0.08950000  0.64330000  0.38180000  1
  F  F423  1  0.83530000  0.79030000  0.79570000  1
  F  F424  1  0.88180000  0.70340000  0.82930000  1
  F  F425  1  0.80200000  0.75530000  0.88600000  1
  F  F426  1  0.83530000  0.20970000  0.20430000  1
  F  F427  1  0.88180000  0.29660000  0.17070000  1
  F  F428  1  0.80200000  0.24470000  0.11400000  1
