# generated using pymatgen
data_Zr6H47C98N3(O4F3)8
_symmetry_space_group_name_H-M   'P 1'
_cell_length_a   18.82220000
_cell_length_b   23.07160000
_cell_length_c   23.07160000
_cell_angle_alpha   90.00000000
_cell_angle_beta   90.00000000
_cell_angle_gamma   90.00000000
_symmetry_Int_Tables_number   1
_chemical_formula_structural   Zr6H47C98N3(O4F3)8
_chemical_formula_sum   'Zr12 H94 C196 N6 O64 F48'
_cell_volume   10019.03309106
_cell_formula_units_Z   2
loop_
 _symmetry_equiv_pos_site_id
 _symmetry_equiv_pos_as_xyz
  1  'x, y, z'
loop_
 _atom_site_type_symbol
 _atom_site_label
 _atom_site_symmetry_multiplicity
 _atom_site_fract_x
 _atom_site_fract_y
 _atom_site_fract_z
 _atom_site_occupancy
  Zr  Zr0  1  0.09258000  0.42434000  0.00000000  1
  Zr  Zr1  1  0.09258000  0.57566000  0.00000000  1
  Zr  Zr2  1  0.59258000  0.00000000  0.42434000  1
  Zr  Zr3  1  0.59258000  0.00000000  0.57566000  1
  Zr  Zr4  1  0.90742000  0.57566000  0.00000000  1
  Zr  Zr5  1  0.90742000  0.42434000  0.00000000  1
  Zr  Zr6  1  0.40742000  0.00000000  0.42434000  1
  Zr  Zr7  1  0.40742000  0.00000000  0.57566000  1
  Zr  Zr8  1  1.00000000  0.50000000  0.10758000  1
  Zr  Zr9  1  0.00000000  0.50000000  0.89242000  1
  Zr  Zr10  1  0.50000000  0.89242000  0.50000000  1
  Zr  Zr11  1  0.50000000  0.10758000  0.50000000  1
  H  H12  1  0.09990000  0.39470000  0.25070000  1
  H  H13  1  0.22900000  0.33580000  0.12540000  1
  H  H14  1  0.29280000  0.28360000  0.19390000  1
  H  H15  1  0.09990000  0.60530000  0.74930000  1
  H  H16  1  0.22900000  0.66420000  0.87460000  1
  H  H17  1  0.29280000  0.71640000  0.80610000  1
  H  H18  1  0.59990000  0.74930000  0.39470000  1
  H  H19  1  0.72900000  0.87460000  0.33580000  1
  H  H20  1  0.79280000  0.80610000  0.28360000  1
  H  H21  1  0.59990000  0.25070000  0.60530000  1
  H  H22  1  0.72900000  0.12540000  0.66420000  1
  H  H23  1  0.79280000  0.19390000  0.71640000  1
  H  H24  1  0.90010000  0.60530000  0.25070000  1
  H  H25  1  0.77100000  0.66420000  0.12540000  1
  H  H26  1  0.84020000  0.66380000  0.31780000  1
  H  H27  1  0.90010000  0.39470000  0.74930000  1
  H  H28  1  0.77100000  0.33580000  0.87460000  1
  H  H29  1  0.84020000  0.33620000  0.68220000  1
  H  H30  1  0.40010000  0.25070000  0.39470000  1
  H  H31  1  0.27100000  0.12540000  0.33580000  1
  H  H32  1  0.34020000  0.31780000  0.33620000  1
  H  H33  1  0.40010000  0.74930000  0.60530000  1
  H  H34  1  0.27100000  0.87460000  0.66420000  1
  H  H35  1  0.34020000  0.68220000  0.66380000  1
  H  H36  1  0.90010000  0.60530000  0.74930000  1
  H  H37  1  0.77100000  0.66420000  0.87460000  1
  H  H38  1  0.70720000  0.71640000  0.80610000  1
  H  H39  1  0.90010000  0.39470000  0.25070000  1
  H  H40  1  0.77100000  0.33580000  0.12540000  1
  H  H41  1  0.70720000  0.28360000  0.19390000  1
  H  H42  1  0.40010000  0.25070000  0.60530000  1
  H  H43  1  0.27100000  0.12540000  0.66420000  1
  H  H44  1  0.34020000  0.31780000  0.66380000  1
  H  H45  1  0.40010000  0.74930000  0.39470000  1
  H  H46  1  0.27100000  0.87460000  0.33580000  1
  H  H47  1  0.34020000  0.68220000  0.33620000  1
  H  H48  1  0.09990000  0.39470000  0.74930000  1
  H  H49  1  0.22900000  0.33580000  0.87460000  1
  H  H50  1  0.29280000  0.28360000  0.80610000  1
  H  H51  1  0.09990000  0.60530000  0.25070000  1
  H  H52  1  0.22900000  0.66420000  0.12540000  1
  H  H53  1  0.29280000  0.71640000  0.19390000  1
  H  H54  1  0.59990000  0.74930000  0.60530000  1
  H  H55  1  0.72900000  0.87460000  0.66420000  1
  H  H56  1  0.65980000  0.68220000  0.66380000  1
  H  H57  1  0.59990000  0.25070000  0.39470000  1
  H  H58  1  0.72900000  0.12540000  0.33580000  1
  H  H59  1  0.65980000  0.31780000  0.33620000  1
  H  H60  1  0.32370000  0.41190000  0.00000000  1
  H  H61  1  0.10790000  0.23580000  0.00000000  1
  H  H62  1  0.10770000  0.13400000  0.00000000  1
  H  H63  1  0.43450000  0.36190000  0.00000000  1
  H  H64  1  0.50550000  0.39360000  0.00000000  1
  H  H65  1  0.32370000  0.58810000  0.00000000  1
  H  H66  1  0.10790000  0.76420000  0.00000000  1
  H  H67  1  0.10770000  0.86600000  0.00000000  1
  H  H68  1  0.44820000  0.58790000  0.00000000  1
  H  H69  1  0.82370000  0.00000000  0.41190000  1
  H  H70  1  0.60790000  0.00000000  0.23580000  1
  H  H71  1  0.60770000  0.00000000  0.13400000  1
  H  H72  1  0.94820000  0.00000000  0.41210000  1
  H  H73  1  0.82370000  1.00000000  0.58810000  1
  H  H74  1  0.60790000  0.00000000  0.76420000  1
  H  H75  1  0.60770000  1.00000000  0.86600000  1
  H  H76  1  0.93450000  0.00000000  0.63810000  1
  H  H77  1  0.00550000  0.00000000  0.60640000  1
  H  H78  1  0.67630000  0.58810000  0.00000000  1
  H  H79  1  0.89210000  0.76420000  0.00000000  1
  H  H80  1  0.89230000  0.86600000  0.00000000  1
  H  H81  1  0.56550000  0.63810000  0.00000000  1
  H  H82  1  0.49450000  0.60640000  0.00000000  1
  H  H83  1  0.67630000  0.41190000  0.00000000  1
  H  H84  1  0.89210000  0.23580000  0.00000000  1
  H  H85  1  0.89230000  0.13400000  0.00000000  1
  H  H86  1  0.55180000  0.41210000  0.00000000  1
  H  H87  1  0.17630000  0.00000000  0.41190000  1
  H  H88  1  0.39210000  0.00000000  0.23580000  1
  H  H89  1  0.39230000  0.00000000  0.13400000  1
  H  H90  1  0.06550000  0.00000000  0.36190000  1
  H  H91  1  0.99450000  0.00000000  0.39360000  1
  H  H92  1  0.17630000  1.00000000  0.58810000  1
  H  H93  1  0.39210000  0.00000000  0.76420000  1
  H  H94  1  0.39230000  1.00000000  0.86600000  1
  H  H95  1  0.05180000  0.00000000  0.58790000  1
  H  H96  1  0.00000000  0.05090000  0.08790000  1
  H  H97  1  0.00000000  0.94910000  0.91210000  1
  H  H98  1  0.50000000  0.89190000  0.09800000  1
  H  H99  1  0.50000000  0.86060000  0.03980000  1
  H  H100  1  0.50000000  0.08790000  0.94910000  1
  H  H101  1  0.00000000  0.94910000  0.08790000  1
  H  H102  1  0.00000000  0.09800000  0.89190000  1
  H  H103  1  0.00000000  0.03980000  0.86060000  1
  H  H104  1  0.50000000  0.08790000  0.05090000  1
  H  H105  1  0.50000000  0.91210000  0.94910000  1
  C  C106  1  0.23130000  0.30250000  0.26210000  1
  C  C107  1  0.17460000  0.33630000  0.27840000  1
  C  C108  1  0.13810000  0.37070000  0.23840000  1
  C  C109  1  0.15780000  0.36970000  0.18150000  1
  C  C110  1  0.21480000  0.33670000  0.16490000  1
  C  C111  1  0.25190000  0.30460000  0.20570000  1
  C  C112  1  0.11720000  0.40400000  0.13720000  1
  C  C113  1  0.14080000  0.33270000  0.33720000  1
  C  C114  1  0.23130000  0.69750000  0.73790000  1
  C  C115  1  0.17460000  0.66370000  0.72160000  1
  C  C116  1  0.13810000  0.62930000  0.76160000  1
  C  C117  1  0.15780000  0.63030000  0.81850000  1
  C  C118  1  0.21480000  0.66330000  0.83510000  1
  C  C119  1  0.25190000  0.69540000  0.79430000  1
  C  C120  1  0.11720000  0.59600000  0.86280000  1
  C  C121  1  0.14080000  0.66730000  0.66280000  1
  C  C122  1  0.73130000  0.73790000  0.30250000  1
  C  C123  1  0.67460000  0.72160000  0.33630000  1
  C  C124  1  0.63810000  0.76160000  0.37070000  1
  C  C125  1  0.65780000  0.81850000  0.36970000  1
  C  C126  1  0.71480000  0.83510000  0.33670000  1
  C  C127  1  0.75190000  0.79430000  0.30460000  1
  C  C128  1  0.61720000  0.86280000  0.40400000  1
  C  C129  1  0.64080000  0.66280000  0.33270000  1
  C  C130  1  0.73130000  0.26210000  0.69750000  1
  C  C131  1  0.67460000  0.27840000  0.66370000  1
  C  C132  1  0.63810000  0.23840000  0.62930000  1
  C  C133  1  0.65780000  0.18150000  0.63030000  1
  C  C134  1  0.71480000  0.16490000  0.66330000  1
  C  C135  1  0.75190000  0.20570000  0.69540000  1
  C  C136  1  0.61720000  0.13720000  0.59600000  1
  C  C137  1  0.64080000  0.33720000  0.66730000  1
  C  C138  1  0.76870000  0.69750000  0.26210000  1
  C  C139  1  0.82540000  0.66370000  0.27840000  1
  C  C140  1  0.86190000  0.62930000  0.23840000  1
  C  C141  1  0.84220000  0.63030000  0.18150000  1
  C  C142  1  0.78520000  0.66330000  0.16490000  1
  C  C143  1  0.74810000  0.69540000  0.20570000  1
  C  C144  1  0.88280000  0.59600000  0.13720000  1
  C  C145  1  0.68560000  0.72550000  0.17900000  1
  C  C146  1  0.76870000  0.30250000  0.73790000  1
  C  C147  1  0.82540000  0.33630000  0.72160000  1
  C  C148  1  0.86190000  0.37070000  0.76160000  1
  C  C149  1  0.84220000  0.36970000  0.81850000  1
  C  C150  1  0.78520000  0.33670000  0.83510000  1
  C  C151  1  0.74810000  0.30460000  0.79430000  1
  C  C152  1  0.88280000  0.40400000  0.86280000  1
  C  C153  1  0.68560000  0.27450000  0.82100000  1
  C  C154  1  0.26870000  0.26210000  0.30250000  1
  C  C155  1  0.32540000  0.27840000  0.33630000  1
  C  C156  1  0.36190000  0.23840000  0.37070000  1
  C  C157  1  0.34220000  0.18150000  0.36970000  1
  C  C158  1  0.28520000  0.16490000  0.33670000  1
  C  C159  1  0.24810000  0.20570000  0.30460000  1
  C  C160  1  0.38280000  0.13720000  0.40400000  1
  C  C161  1  0.18560000  0.17900000  0.27450000  1
  C  C162  1  0.26870000  0.73790000  0.69750000  1
  C  C163  1  0.32540000  0.72160000  0.66370000  1
  C  C164  1  0.36190000  0.76160000  0.62930000  1
  C  C165  1  0.34220000  0.81850000  0.63030000  1
  C  C166  1  0.28520000  0.83510000  0.66330000  1
  C  C167  1  0.24810000  0.79430000  0.69540000  1
  C  C168  1  0.38280000  0.86280000  0.59600000  1
  C  C169  1  0.18560000  0.82100000  0.72550000  1
  C  C170  1  0.76870000  0.69750000  0.73790000  1
  C  C171  1  0.82540000  0.66370000  0.72160000  1
  C  C172  1  0.86190000  0.62930000  0.76160000  1
  C  C173  1  0.84220000  0.63030000  0.81850000  1
  C  C174  1  0.78520000  0.66330000  0.83510000  1
  C  C175  1  0.74810000  0.69540000  0.79430000  1
  C  C176  1  0.88280000  0.59600000  0.86280000  1
  C  C177  1  0.85920000  0.66730000  0.66280000  1
  C  C178  1  0.76870000  0.30250000  0.26210000  1
  C  C179  1  0.82540000  0.33630000  0.27840000  1
  C  C180  1  0.86190000  0.37070000  0.23840000  1
  C  C181  1  0.84220000  0.36970000  0.18150000  1
  C  C182  1  0.78520000  0.33670000  0.16490000  1
  C  C183  1  0.74810000  0.30460000  0.20570000  1
  C  C184  1  0.88280000  0.40400000  0.13720000  1
  C  C185  1  0.85920000  0.33270000  0.33720000  1
  C  C186  1  0.26870000  0.26210000  0.69750000  1
  C  C187  1  0.32540000  0.27840000  0.66370000  1
  C  C188  1  0.36190000  0.23840000  0.62930000  1
  C  C189  1  0.34220000  0.18150000  0.63030000  1
  C  C190  1  0.28520000  0.16490000  0.66330000  1
  C  C191  1  0.24810000  0.20570000  0.69540000  1
  C  C192  1  0.38280000  0.13720000  0.59600000  1
  C  C193  1  0.18560000  0.17900000  0.72550000  1
  C  C194  1  0.26870000  0.73790000  0.30250000  1
  C  C195  1  0.32540000  0.72160000  0.33630000  1
  C  C196  1  0.36190000  0.76160000  0.37070000  1
  C  C197  1  0.34220000  0.81850000  0.36970000  1
  C  C198  1  0.28520000  0.83510000  0.33670000  1
  C  C199  1  0.24810000  0.79430000  0.30460000  1
  C  C200  1  0.38280000  0.86280000  0.40400000  1
  C  C201  1  0.18560000  0.82100000  0.27450000  1
  C  C202  1  0.23130000  0.30250000  0.73790000  1
  C  C203  1  0.17460000  0.33630000  0.72160000  1
  C  C204  1  0.13810000  0.37070000  0.76160000  1
  C  C205  1  0.15780000  0.36970000  0.81850000  1
  C  C206  1  0.21480000  0.33670000  0.83510000  1
  C  C207  1  0.25190000  0.30460000  0.79430000  1
  C  C208  1  0.11720000  0.40400000  0.86280000  1
  C  C209  1  0.14080000  0.33270000  0.66280000  1
  C  C210  1  0.23130000  0.69750000  0.26210000  1
  C  C211  1  0.17460000  0.66370000  0.27840000  1
  C  C212  1  0.13810000  0.62930000  0.23840000  1
  C  C213  1  0.15780000  0.63030000  0.18150000  1
  C  C214  1  0.21480000  0.66330000  0.16490000  1
  C  C215  1  0.25190000  0.69540000  0.20570000  1
  C  C216  1  0.11720000  0.59600000  0.13720000  1
  C  C217  1  0.14080000  0.66730000  0.33720000  1
  C  C218  1  0.73130000  0.73790000  0.69750000  1
  C  C219  1  0.67460000  0.72160000  0.66370000  1
  C  C220  1  0.63810000  0.76160000  0.62930000  1
  C  C221  1  0.65780000  0.81850000  0.63030000  1
  C  C222  1  0.71480000  0.83510000  0.66330000  1
  C  C223  1  0.75190000  0.79430000  0.69540000  1
  C  C224  1  0.61720000  0.86280000  0.59600000  1
  C  C225  1  0.81440000  0.82100000  0.72550000  1
  C  C226  1  0.73130000  0.26210000  0.30250000  1
  C  C227  1  0.67460000  0.27840000  0.33630000  1
  C  C228  1  0.63810000  0.23840000  0.37070000  1
  C  C229  1  0.65780000  0.18150000  0.36970000  1
  C  C230  1  0.71480000  0.16490000  0.33670000  1
  C  C231  1  0.75190000  0.20570000  0.30460000  1
  C  C232  1  0.61720000  0.13720000  0.40400000  1
  C  C233  1  0.81440000  0.17900000  0.27450000  1
  C  C234  1  0.34900000  0.44760000  0.00000000  1
  C  C235  1  0.42300000  0.44774000  0.00000000  1
  C  C236  1  0.06420000  0.21520000  0.00000000  1
  C  C237  1  0.06400000  0.15470000  0.00000000  1
  C  C238  1  0.34900000  0.55240000  0.00000000  1
  C  C239  1  0.42300000  0.55226000  0.00000000  1
  C  C240  1  0.06420000  0.78480000  0.00000000  1
  C  C241  1  0.06400000  0.84530000  0.00000000  1
  C  C242  1  0.84900000  0.00000000  0.44760000  1
  C  C243  1  0.92300000  0.00000000  0.44774000  1
  C  C244  1  0.56420000  0.00000000  0.21520000  1
  C  C245  1  0.56400000  0.00000000  0.15470000  1
  C  C246  1  0.84900000  0.00000000  0.55240000  1
  C  C247  1  0.92300000  0.00000000  0.55226000  1
  C  C248  1  0.56420000  0.00000000  0.78480000  1
  C  C249  1  0.56400000  0.00000000  0.84530000  1
  C  C250  1  0.65100000  0.55240000  0.00000000  1
  C  C251  1  0.57700000  0.55226000  0.00000000  1
  C  C252  1  0.93580000  0.78480000  0.00000000  1
  C  C253  1  0.93600000  0.84530000  0.00000000  1
  C  C254  1  0.65100000  0.44760000  0.00000000  1
  C  C255  1  0.57700000  0.44774000  0.00000000  1
  C  C256  1  0.93580000  0.21520000  0.00000000  1
  C  C257  1  0.93600000  0.15470000  0.00000000  1
  C  C258  1  0.15100000  0.00000000  0.44760000  1
  C  C259  1  0.07700000  0.00000000  0.44774000  1
  C  C260  1  0.43580000  0.00000000  0.21520000  1
  C  C261  1  0.43600000  0.00000000  0.15470000  1
  C  C262  1  0.15100000  0.00000000  0.55240000  1
  C  C263  1  0.07700000  0.00000000  0.55226000  1
  C  C264  1  0.43580000  0.00000000  0.78480000  1
  C  C265  1  0.43600000  0.00000000  0.84530000  1
  C  C266  1  0.00000000  0.03029000  0.05228000  1
  C  C267  1  0.00000000  0.96971000  0.94772000  1
  C  C268  1  0.50000000  0.94772000  0.03029000  1
  C  C269  1  0.50000000  0.05228000  0.96971000  1
  C  C270  1  0.00000000  0.96971000  0.05228000  1
  C  C271  1  0.00000000  0.03029000  0.94772000  1
  C  C272  1  0.50000000  0.05228000  0.03029000  1
  C  C273  1  0.50000000  0.94772000  0.96971000  1
  C  C274  1  0.23280000  0.50000000  0.00000000  1
  C  C275  1  0.31220000  0.50000000  0.00000000  1
  C  C276  1  0.46010000  0.50000000  0.00000000  1
  C  C277  1  0.73280000  0.00000000  0.50000000  1
  C  C278  1  0.81220000  0.00000000  0.50000000  1
  C  C279  1  0.96010000  0.00000000  0.50000000  1
  C  C280  1  0.76720000  0.50000000  0.00000000  1
  C  C281  1  0.68780000  0.50000000  0.00000000  1
  C  C282  1  0.53990000  0.50000000  0.00000000  1
  C  C283  1  0.26720000  0.00000000  0.50000000  1
  C  C284  1  0.18780000  0.00000000  0.50000000  1
  C  C285  1  0.03990000  0.00000000  0.50000000  1
  C  C286  1  0.00000000  0.30970000  0.00000000  1
  C  C287  1  0.00000000  0.24530000  0.00000000  1
  C  C288  1  0.00000000  0.12490000  0.00000000  1
  C  C289  1  0.00000000  0.06039000  0.00000000  1
  C  C290  1  0.00000000  0.69030000  0.00000000  1
  C  C291  1  0.00000000  0.75470000  0.00000000  1
  C  C292  1  0.00000000  0.87510000  0.00000000  1
  C  C293  1  0.00000000  0.93961000  0.00000000  1
  C  C294  1  0.50000000  0.00000000  0.30970000  1
  C  C295  1  0.50000000  0.00000000  0.24530000  1
  C  C296  1  0.50000000  0.00000000  0.12490000  1
  C  C297  1  0.50000000  0.00000000  0.06039000  1
  C  C298  1  0.50000000  0.00000000  0.69030000  1
  C  C299  1  0.50000000  0.00000000  0.75470000  1
  C  C300  1  0.50000000  0.00000000  0.87510000  1
  C  C301  1  0.50000000  0.00000000  0.93961000  1
  N  N302  1  0.45870000  0.39450000  0.00000000  1
  N  N303  1  0.95870000  0.00000000  0.60550000  1
  N  N304  1  0.54130000  0.60550000  0.00000000  1
  N  N305  1  0.04130000  0.00000000  0.39450000  1
  N  N306  1  0.50000000  0.89300000  0.05980000  1
  N  N307  1  0.00000000  0.05980000  0.89300000  1
  O  O308  1  0.13320000  0.39240000  0.08466000  1
  O  O309  1  0.07260000  0.44126000  0.15606000  1
  O  O310  1  0.13320000  0.60760000  0.91534000  1
  O  O311  1  0.07260000  0.55874000  0.84394000  1
  O  O312  1  0.63320000  0.91534000  0.39240000  1
  O  O313  1  0.57260000  0.84394000  0.44126000  1
  O  O314  1  0.63320000  0.08466000  0.60760000  1
  O  O315  1  0.57260000  0.15606000  0.55874000  1
  O  O316  1  0.86680000  0.60760000  0.08466000  1
  O  O317  1  0.92740000  0.55874000  0.15606000  1
  O  O318  1  0.86680000  0.39240000  0.91534000  1
  O  O319  1  0.92740000  0.44126000  0.84394000  1
  O  O320  1  0.36680000  0.08466000  0.39240000  1
  O  O321  1  0.42740000  0.15606000  0.44126000  1
  O  O322  1  0.36680000  0.91534000  0.60760000  1
  O  O323  1  0.42740000  0.84394000  0.55874000  1
  O  O324  1  0.86680000  0.60760000  0.91534000  1
  O  O325  1  0.92740000  0.55874000  0.84394000  1
  O  O326  1  0.86680000  0.39240000  0.08466000  1
  O  O327  1  0.92740000  0.44126000  0.15606000  1
  O  O328  1  0.36680000  0.08466000  0.60760000  1
  O  O329  1  0.42740000  0.15606000  0.55874000  1
  O  O330  1  0.36680000  0.91534000  0.39240000  1
  O  O331  1  0.42740000  0.84394000  0.44126000  1
  O  O332  1  0.13320000  0.39240000  0.91534000  1
  O  O333  1  0.07260000  0.44126000  0.84394000  1
  O  O334  1  0.13320000  0.60760000  0.08466000  1
  O  O335  1  0.07260000  0.55874000  0.15606000  1
  O  O336  1  0.63320000  0.91534000  0.60760000  1
  O  O337  1  0.57260000  0.84394000  0.55874000  1
  O  O338  1  0.63320000  0.08466000  0.39240000  1
  O  O339  1  0.57260000  0.15606000  0.44126000  1
  O  O340  1  0.20680000  0.44240000  0.00000000  1
  O  O341  1  0.06420000  0.33220000  0.00000000  1
  O  O342  1  0.20680000  0.55760000  0.00000000  1
  O  O343  1  0.06420000  0.66780000  0.00000000  1
  O  O344  1  0.70680000  0.00000000  0.44240000  1
  O  O345  1  0.56420000  0.00000000  0.33220000  1
  O  O346  1  0.70680000  0.00000000  0.55760000  1
  O  O347  1  0.56420000  0.00000000  0.66780000  1
  O  O348  1  0.79320000  0.55760000  0.00000000  1
  O  O349  1  0.93580000  0.66780000  0.00000000  1
  O  O350  1  0.79320000  0.44240000  0.00000000  1
  O  O351  1  0.93580000  0.33220000  0.00000000  1
  O  O352  1  0.29320000  0.00000000  0.44240000  1
  O  O353  1  0.43580000  0.00000000  0.33220000  1
  O  O354  1  0.29320000  0.00000000  0.55760000  1
  O  O355  1  0.43580000  0.00000000  0.66780000  1
  O  O356  1  0.00000000  0.42530000  0.05300000  1
  O  O357  1  0.00000000  0.57470000  0.94700000  1
  O  O358  1  0.50000000  0.94700000  0.42530000  1
  O  O359  1  0.50000000  0.05300000  0.57470000  1
  O  O360  1  0.00000000  0.57470000  0.05300000  1
  O  O361  1  0.00000000  0.42530000  0.94700000  1
  O  O362  1  0.50000000  0.05300000  0.42530000  1
  O  O363  1  0.50000000  0.94700000  0.57470000  1
  O  O364  1  0.09260000  0.50000000  0.05320000  1
  O  O365  1  0.09260000  0.50000000  0.94680000  1
  O  O366  1  0.59260000  0.94680000  0.50000000  1
  O  O367  1  0.59260000  0.05320000  0.50000000  1
  O  O368  1  0.90740000  0.50000000  0.05320000  1
  O  O369  1  0.90740000  0.50000000  0.94680000  1
  O  O370  1  0.40740000  0.05320000  0.50000000  1
  O  O371  1  0.40740000  0.94680000  0.50000000  1
  F  F372  1  0.08560000  0.36990000  0.34930000  1
  F  F373  1  0.18620000  0.34050000  0.38420000  1
  F  F374  1  0.10960000  0.27850000  0.35160000  1
  F  F375  1  0.08560000  0.63010000  0.65070000  1
  F  F376  1  0.18620000  0.65950000  0.61580000  1
  F  F377  1  0.10960000  0.72150000  0.64840000  1
  F  F378  1  0.58560000  0.65070000  0.36990000  1
  F  F379  1  0.68620000  0.61580000  0.34050000  1
  F  F380  1  0.60960000  0.64840000  0.27850000  1
  F  F381  1  0.58560000  0.34930000  0.63010000  1
  F  F382  1  0.68620000  0.38420000  0.65950000  1
  F  F383  1  0.60960000  0.35160000  0.72150000  1
  F  F384  1  0.66510000  0.71060000  0.12300000  1
  F  F385  1  0.69220000  0.78580000  0.17410000  1
  F  F386  1  0.62110000  0.72000000  0.20850000  1
  F  F387  1  0.66510000  0.28940000  0.87700000  1
  F  F388  1  0.69220000  0.21420000  0.82590000  1
  F  F389  1  0.62110000  0.28000000  0.79150000  1
  F  F390  1  0.16510000  0.12300000  0.28940000  1
  F  F391  1  0.19220000  0.17410000  0.21420000  1
  F  F392  1  0.12110000  0.20850000  0.28000000  1
  F  F393  1  0.16510000  0.87700000  0.71060000  1
  F  F394  1  0.19220000  0.82590000  0.78580000  1
  F  F395  1  0.12110000  0.79150000  0.72000000  1
  F  F396  1  0.91440000  0.63010000  0.65070000  1
  F  F397  1  0.81380000  0.65950000  0.61580000  1
  F  F398  1  0.89040000  0.72150000  0.64840000  1
  F  F399  1  0.91440000  0.36990000  0.34930000  1
  F  F400  1  0.81380000  0.34050000  0.38420000  1
  F  F401  1  0.89040000  0.27850000  0.35160000  1
  F  F402  1  0.16510000  0.12300000  0.71060000  1
  F  F403  1  0.19220000  0.17410000  0.78580000  1
  F  F404  1  0.12110000  0.20850000  0.72000000  1
  F  F405  1  0.16510000  0.87700000  0.28940000  1
  F  F406  1  0.19220000  0.82590000  0.21420000  1
  F  F407  1  0.12110000  0.79150000  0.28000000  1
  F  F408  1  0.08560000  0.36990000  0.65070000  1
  F  F409  1  0.18620000  0.34050000  0.61580000  1
  F  F410  1  0.10960000  0.27850000  0.64840000  1
  F  F411  1  0.08560000  0.63010000  0.34930000  1
  F  F412  1  0.18620000  0.65950000  0.38420000  1
  F  F413  1  0.10960000  0.72150000  0.35160000  1
  F  F414  1  0.83490000  0.87700000  0.71060000  1
  F  F415  1  0.80780000  0.82590000  0.78580000  1
  F  F416  1  0.87890000  0.79150000  0.72000000  1
  F  F417  1  0.83490000  0.12300000  0.28940000  1
  F  F418  1  0.80780000  0.17410000  0.21420000  1
  F  F419  1  0.87890000  0.20850000  0.28000000  1
