# generated using pymatgen
data_Zr6H49C100N(O4F3)8
_symmetry_space_group_name_H-M   'P 1'
_cell_length_a   18.89990000
_cell_length_b   23.10140000
_cell_length_c   23.10140000
_cell_angle_alpha   90.00000000
_cell_angle_beta   90.00000000
_cell_angle_gamma   90.00000000
_symmetry_Int_Tables_number   1
_chemical_formula_structural   Zr6H49C100N(O4F3)8
_chemical_formula_sum   'Zr12 H98 C200 N2 O64 F48'
_cell_volume   10086.39812158
_cell_formula_units_Z   2
loop_
 _symmetry_equiv_pos_site_id
 _symmetry_equiv_pos_as_xyz
  1  'x, y, z'
loop_
 _atom_site_type_symbol
 _atom_site_label
 _atom_site_symmetry_multiplicity
 _atom_site_fract_x
 _atom_site_fract_y
 _atom_site_fract_z
 _atom_site_occupancy
  Zr  Zr0  1  0.00000000  1.00000000  0.39242000  1
  Zr  Zr1  1  1.00000000  0.00000000  0.60758000  1
  Zr  Zr2  1  0.50000000  0.60758000  0.00000000  1
  Zr  Zr3  1  0.50000000  0.39242000  0.00000000  1
  Zr  Zr4  1  0.09226000  0.07555000  0.50000000  1
  Zr  Zr5  1  0.09226000  0.92445000  0.50000000  1
  Zr  Zr6  1  0.59226000  0.50000000  0.07555000  1
  Zr  Zr7  1  0.59226000  0.50000000  0.92445000  1
  Zr  Zr8  1  0.90774000  0.92445000  0.50000000  1
  Zr  Zr9  1  0.90774000  0.07555000  0.50000000  1
  Zr  Zr10  1  0.40774000  0.50000000  0.07555000  1
  Zr  Zr11  1  0.40774000  0.50000000  0.92445000  1
  H  H12  1  0.09850000  0.10700000  0.24910000  1
  H  H13  1  0.22670000  0.16540000  0.37500000  1
  H  H14  1  0.12530000  0.44420000  0.41400000  1
  H  H15  1  0.06140000  0.39930000  0.40670000  1
  H  H16  1  0.06140000  0.45860000  0.37090000  1
  H  H17  1  0.16000000  0.16460000  0.18240000  1
  H  H18  1  0.09850000  0.89300000  0.75090000  1
  H  H19  1  0.22670000  0.83460000  0.62500000  1
  H  H20  1  0.16000000  0.83540000  0.81760000  1
  H  H21  1  0.59850000  0.75090000  0.10700000  1
  H  H22  1  0.72670000  0.62500000  0.16540000  1
  H  H23  1  0.66000000  0.81760000  0.16460000  1
  H  H24  1  0.59850000  0.24910000  0.89300000  1
  H  H25  1  0.72670000  0.37500000  0.83460000  1
  H  H26  1  0.66000000  0.18240000  0.83540000  1
  H  H27  1  0.55910000  0.42650000  0.55040000  1
  H  H28  1  0.90150000  0.89300000  0.24910000  1
  H  H29  1  0.77330000  0.83460000  0.37500000  1
  H  H30  1  0.70760000  0.78310000  0.30690000  1
  H  H31  1  0.90150000  0.10700000  0.75090000  1
  H  H32  1  0.77330000  0.16540000  0.62500000  1
  H  H33  1  0.70760000  0.21690000  0.69310000  1
  H  H34  1  0.94090000  0.44960000  0.57350000  1
  H  H35  1  0.40150000  0.24910000  0.10700000  1
  H  H36  1  0.27330000  0.37500000  0.16540000  1
  H  H37  1  0.20760000  0.30690000  0.21690000  1
  H  H38  1  0.40150000  0.75090000  0.89300000  1
  H  H39  1  0.27330000  0.62500000  0.83460000  1
  H  H40  1  0.20760000  0.69310000  0.78310000  1
  H  H41  1  0.37470000  0.58600000  0.55580000  1
  H  H42  1  0.43860000  0.59330000  0.60070000  1
  H  H43  1  0.43860000  0.62910000  0.54140000  1
  H  H44  1  0.90150000  0.89300000  0.75090000  1
  H  H45  1  0.77330000  0.83460000  0.62500000  1
  H  H46  1  0.70760000  0.78310000  0.69310000  1
  H  H47  1  0.87470000  0.55580000  0.58600000  1
  H  H48  1  0.93860000  0.60070000  0.59330000  1
  H  H49  1  0.93860000  0.54140000  0.62910000  1
  H  H50  1  0.90150000  0.10700000  0.24910000  1
  H  H51  1  0.77330000  0.16540000  0.37500000  1
  H  H52  1  0.70760000  0.21690000  0.30690000  1
  H  H53  1  0.40150000  0.24910000  0.89300000  1
  H  H54  1  0.27330000  0.37500000  0.83460000  1
  H  H55  1  0.20760000  0.30690000  0.78310000  1
  H  H56  1  0.40150000  0.75090000  0.10700000  1
  H  H57  1  0.27330000  0.62500000  0.16540000  1
  H  H58  1  0.34000000  0.81760000  0.16460000  1
  H  H59  1  0.44090000  0.57350000  0.44960000  1
  H  H60  1  0.09850000  0.10700000  0.75090000  1
  H  H61  1  0.22670000  0.16540000  0.62500000  1
  H  H62  1  0.16000000  0.16460000  0.81760000  1
  H  H63  1  0.09850000  0.89300000  0.24910000  1
  H  H64  1  0.22670000  0.83460000  0.37500000  1
  H  H65  1  0.29240000  0.78310000  0.30690000  1
  H  H66  1  0.05910000  0.55040000  0.42650000  1
  H  H67  1  0.59850000  0.75090000  0.89300000  1
  H  H68  1  0.72670000  0.62500000  0.83460000  1
  H  H69  1  0.66000000  0.81760000  0.83540000  1
  H  H70  1  0.59850000  0.24910000  0.10700000  1
  H  H71  1  0.72670000  0.37500000  0.16540000  1
  H  H72  1  0.62530000  0.41400000  0.44420000  1
  H  H73  1  0.56140000  0.40670000  0.39930000  1
  H  H74  1  0.56140000  0.37090000  0.45860000  1
  H  H75  1  0.66000000  0.18240000  0.16460000  1
  H  H76  1  0.32450000  0.08800000  0.50000000  1
  H  H77  1  0.10720000  0.26450000  0.50000000  1
  H  H78  1  0.10720000  0.36630000  0.50000000  1
  H  H79  1  0.44790000  0.08800000  0.50000000  1
  H  H80  1  0.32450000  0.91200000  0.50000000  1
  H  H81  1  0.10720000  0.73550000  0.50000000  1
  H  H82  1  0.10720000  0.63370000  0.50000000  1
  H  H83  1  0.44790000  0.91200000  0.50000000  1
  H  H84  1  0.82450000  0.50000000  0.08800000  1
  H  H85  1  0.60720000  0.50000000  0.26450000  1
  H  H86  1  0.60720000  0.50000000  0.36630000  1
  H  H87  1  0.93520000  0.50000000  0.13790000  1
  H  H88  1  0.00560000  0.50000000  0.10570000  1
  H  H89  1  0.82450000  0.50000000  0.91200000  1
  H  H90  1  0.60720000  0.50000000  0.73550000  1
  H  H91  1  0.60720000  0.50000000  0.63370000  1
  H  H92  1  0.94790000  0.50000000  0.91200000  1
  H  H93  1  0.67550000  0.91200000  0.50000000  1
  H  H94  1  0.89280000  0.73550000  0.50000000  1
  H  H95  1  0.89280000  0.63370000  0.50000000  1
  H  H96  1  0.55210000  0.91200000  0.50000000  1
  H  H97  1  0.67550000  0.08800000  0.50000000  1
  H  H98  1  0.89280000  0.26450000  0.50000000  1
  H  H99  1  0.89280000  0.36630000  0.50000000  1
  H  H100  1  0.56480000  0.13790000  0.50000000  1
  H  H101  1  0.49440000  0.10570000  0.50000000  1
  H  H102  1  0.17550000  0.50000000  0.08800000  1
  H  H103  1  0.39280000  0.50000000  0.26450000  1
  H  H104  1  0.39280000  0.50000000  0.36630000  1
  H  H105  1  0.05210000  0.50000000  0.08800000  1
  H  H106  1  0.17550000  0.50000000  0.91200000  1
  H  H107  1  0.39280000  0.50000000  0.73550000  1
  H  H108  1  0.39280000  0.50000000  0.63370000  1
  H  H109  1  0.05210000  0.50000000  0.91200000  1
  C  C110  1  0.23120000  0.19790000  0.23900000  1
  C  C111  1  0.17420000  0.16430000  0.22190000  1
  C  C112  1  0.13720000  0.13020000  0.26140000  1
  C  C113  1  0.15760000  0.13040000  0.31830000  1
  C  C114  1  0.21370000  0.16400000  0.33530000  1
  C  C115  1  0.25160000  0.19610000  0.29500000  1
  C  C116  1  0.11730000  0.09620000  0.36310000  1
  C  C117  1  0.03510000  0.46977000  0.45640000  1
  C  C118  1  0.07420000  0.44040000  0.40770000  1
  C  C119  1  0.31170000  0.22890000  0.32160000  1
  C  C120  1  0.23120000  0.80210000  0.76100000  1
  C  C121  1  0.17420000  0.83570000  0.77810000  1
  C  C122  1  0.13720000  0.86980000  0.73860000  1
  C  C123  1  0.15760000  0.86960000  0.68170000  1
  C  C124  1  0.21370000  0.83600000  0.66470000  1
  C  C125  1  0.25160000  0.80390000  0.70500000  1
  C  C126  1  0.11730000  0.90380000  0.63690000  1
  C  C127  1  0.31170000  0.77110000  0.67840000  1
  C  C128  1  0.73120000  0.76100000  0.19790000  1
  C  C129  1  0.67420000  0.77810000  0.16430000  1
  C  C130  1  0.63720000  0.73860000  0.13020000  1
  C  C131  1  0.65760000  0.68170000  0.13040000  1
  C  C132  1  0.71370000  0.66470000  0.16400000  1
  C  C133  1  0.75160000  0.70500000  0.19610000  1
  C  C134  1  0.61730000  0.63690000  0.09620000  1
  C  C135  1  0.81170000  0.67840000  0.22890000  1
  C  C136  1  0.73120000  0.23900000  0.80210000  1
  C  C137  1  0.67420000  0.22190000  0.83570000  1
  C  C138  1  0.63720000  0.26140000  0.86980000  1
  C  C139  1  0.65760000  0.31830000  0.86960000  1
  C  C140  1  0.71370000  0.33530000  0.83600000  1
  C  C141  1  0.75160000  0.29500000  0.80390000  1
  C  C142  1  0.61730000  0.36310000  0.90380000  1
  C  C143  1  0.53510000  0.45640000  0.53023000  1
  C  C144  1  0.81170000  0.32160000  0.77110000  1
  C  C145  1  0.76880000  0.80210000  0.23900000  1
  C  C146  1  0.82580000  0.83570000  0.22190000  1
  C  C147  1  0.86280000  0.86980000  0.26140000  1
  C  C148  1  0.84240000  0.86960000  0.31830000  1
  C  C149  1  0.78630000  0.83600000  0.33530000  1
  C  C150  1  0.74840000  0.80390000  0.29500000  1
  C  C151  1  0.86020000  0.83150000  0.16390000  1
  C  C152  1  0.88270000  0.90380000  0.36310000  1
  C  C153  1  0.76880000  0.19790000  0.76100000  1
  C  C154  1  0.82580000  0.16430000  0.77810000  1
  C  C155  1  0.86280000  0.13020000  0.73860000  1
  C  C156  1  0.84240000  0.13040000  0.68170000  1
  C  C157  1  0.78630000  0.16400000  0.66470000  1
  C  C158  1  0.74840000  0.19610000  0.70500000  1
  C  C159  1  0.86020000  0.16850000  0.83610000  1
  C  C160  1  0.88270000  0.09620000  0.63690000  1
  C  C161  1  0.96490000  0.46977000  0.54360000  1
  C  C162  1  0.26880000  0.23900000  0.19790000  1
  C  C163  1  0.32580000  0.22190000  0.16430000  1
  C  C164  1  0.36280000  0.26140000  0.13020000  1
  C  C165  1  0.34240000  0.31830000  0.13040000  1
  C  C166  1  0.28630000  0.33530000  0.16400000  1
  C  C167  1  0.24840000  0.29500000  0.19610000  1
  C  C168  1  0.36020000  0.16390000  0.16850000  1
  C  C169  1  0.38270000  0.36310000  0.09620000  1
  C  C170  1  0.26880000  0.76100000  0.80210000  1
  C  C171  1  0.32580000  0.77810000  0.83570000  1
  C  C172  1  0.36280000  0.73860000  0.86980000  1
  C  C173  1  0.34240000  0.68170000  0.86960000  1
  C  C174  1  0.28630000  0.66470000  0.83600000  1
  C  C175  1  0.24840000  0.70500000  0.80390000  1
  C  C176  1  0.36020000  0.83610000  0.83150000  1
  C  C177  1  0.38270000  0.63690000  0.90380000  1
  C  C178  1  0.46490000  0.54360000  0.53023000  1
  C  C179  1  0.42580000  0.59230000  0.55960000  1
  C  C180  1  0.76880000  0.80210000  0.76100000  1
  C  C181  1  0.82580000  0.83570000  0.77810000  1
  C  C182  1  0.86280000  0.86980000  0.73860000  1
  C  C183  1  0.84240000  0.86960000  0.68170000  1
  C  C184  1  0.78630000  0.83600000  0.66470000  1
  C  C185  1  0.74840000  0.80390000  0.70500000  1
  C  C186  1  0.86020000  0.83150000  0.83610000  1
  C  C187  1  0.88270000  0.90380000  0.63690000  1
  C  C188  1  0.96490000  0.53023000  0.54360000  1
  C  C189  1  0.92580000  0.55960000  0.59230000  1
  C  C190  1  0.76880000  0.19790000  0.23900000  1
  C  C191  1  0.82580000  0.16430000  0.22190000  1
  C  C192  1  0.86280000  0.13020000  0.26140000  1
  C  C193  1  0.84240000  0.13040000  0.31830000  1
  C  C194  1  0.78630000  0.16400000  0.33530000  1
  C  C195  1  0.74840000  0.19610000  0.29500000  1
  C  C196  1  0.86020000  0.16850000  0.16390000  1
  C  C197  1  0.88270000  0.09620000  0.36310000  1
  C  C198  1  0.26880000  0.23900000  0.80210000  1
  C  C199  1  0.32580000  0.22190000  0.83570000  1
  C  C200  1  0.36280000  0.26140000  0.86980000  1
  C  C201  1  0.34240000  0.31830000  0.86960000  1
  C  C202  1  0.28630000  0.33530000  0.83600000  1
  C  C203  1  0.24840000  0.29500000  0.80390000  1
  C  C204  1  0.36020000  0.16390000  0.83150000  1
  C  C205  1  0.38270000  0.36310000  0.90380000  1
  C  C206  1  0.26880000  0.76100000  0.19790000  1
  C  C207  1  0.32580000  0.77810000  0.16430000  1
  C  C208  1  0.36280000  0.73860000  0.13020000  1
  C  C209  1  0.34240000  0.68170000  0.13040000  1
  C  C210  1  0.28630000  0.66470000  0.16400000  1
  C  C211  1  0.24840000  0.70500000  0.19610000  1
  C  C212  1  0.38270000  0.63690000  0.09620000  1
  C  C213  1  0.46490000  0.54360000  0.46977000  1
  C  C214  1  0.18830000  0.67840000  0.22890000  1
  C  C215  1  0.23120000  0.19790000  0.76100000  1
  C  C216  1  0.17420000  0.16430000  0.77810000  1
  C  C217  1  0.13720000  0.13020000  0.73860000  1
  C  C218  1  0.15760000  0.13040000  0.68170000  1
  C  C219  1  0.21370000  0.16400000  0.66470000  1
  C  C220  1  0.25160000  0.19610000  0.70500000  1
  C  C221  1  0.11730000  0.09620000  0.63690000  1
  C  C222  1  0.31170000  0.22890000  0.67840000  1
  C  C223  1  0.23120000  0.80210000  0.23900000  1
  C  C224  1  0.17420000  0.83570000  0.22190000  1
  C  C225  1  0.13720000  0.86980000  0.26140000  1
  C  C226  1  0.15760000  0.86960000  0.31830000  1
  C  C227  1  0.21370000  0.83600000  0.33530000  1
  C  C228  1  0.25160000  0.80390000  0.29500000  1
  C  C229  1  0.13980000  0.83150000  0.16390000  1
  C  C230  1  0.11730000  0.90380000  0.36310000  1
  C  C231  1  0.03510000  0.53023000  0.45640000  1
  C  C232  1  0.73120000  0.76100000  0.80210000  1
  C  C233  1  0.67420000  0.77810000  0.83570000  1
  C  C234  1  0.63720000  0.73860000  0.86980000  1
  C  C235  1  0.65760000  0.68170000  0.86960000  1
  C  C236  1  0.71370000  0.66470000  0.83600000  1
  C  C237  1  0.75160000  0.70500000  0.80390000  1
  C  C238  1  0.61730000  0.63690000  0.90380000  1
  C  C239  1  0.81170000  0.67840000  0.77110000  1
  C  C240  1  0.73120000  0.23900000  0.19790000  1
  C  C241  1  0.67420000  0.22190000  0.16430000  1
  C  C242  1  0.63720000  0.26140000  0.13020000  1
  C  C243  1  0.65760000  0.31830000  0.13040000  1
  C  C244  1  0.71370000  0.33530000  0.16400000  1
  C  C245  1  0.75160000  0.29500000  0.19610000  1
  C  C246  1  0.61730000  0.36310000  0.09620000  1
  C  C247  1  0.53510000  0.45640000  0.46977000  1
  C  C248  1  0.57420000  0.40770000  0.44040000  1
  C  C249  1  0.81170000  0.32160000  0.22890000  1
  C  C250  1  0.42290000  0.05236000  0.50000000  1
  C  C251  1  0.34970000  0.05243000  0.50000000  1
  C  C252  1  0.06380000  0.28520000  0.50000000  1
  C  C253  1  0.06370000  0.34570000  0.50000000  1
  C  C254  1  0.42290000  0.94764000  0.50000000  1
  C  C255  1  0.34970000  0.94757000  0.50000000  1
  C  C256  1  0.06380000  0.71480000  0.50000000  1
  C  C257  1  0.06370000  0.65430000  0.50000000  1
  C  C258  1  0.92290000  0.50000000  0.05236000  1
  C  C259  1  0.84970000  0.50000000  0.05243000  1
  C  C260  1  0.56380000  0.50000000  0.28520000  1
  C  C261  1  0.56370000  0.50000000  0.34570000  1
  C  C262  1  0.92290000  0.50000000  0.94764000  1
  C  C263  1  0.84970000  0.50000000  0.94757000  1
  C  C264  1  0.56380000  0.50000000  0.71480000  1
  C  C265  1  0.56370000  0.50000000  0.65430000  1
  C  C266  1  0.57710000  0.94764000  0.50000000  1
  C  C267  1  0.65030000  0.94757000  0.50000000  1
  C  C268  1  0.93620000  0.71480000  0.50000000  1
  C  C269  1  0.93630000  0.65430000  0.50000000  1
  C  C270  1  0.57710000  0.05236000  0.50000000  1
  C  C271  1  0.65030000  0.05243000  0.50000000  1
  C  C272  1  0.93620000  0.28520000  0.50000000  1
  C  C273  1  0.93630000  0.34570000  0.50000000  1
  C  C274  1  0.07710000  0.50000000  0.05236000  1
  C  C275  1  0.15030000  0.50000000  0.05243000  1
  C  C276  1  0.43620000  0.50000000  0.28520000  1
  C  C277  1  0.43630000  0.50000000  0.34570000  1
  C  C278  1  0.07710000  0.50000000  0.94764000  1
  C  C279  1  0.15030000  0.50000000  0.94757000  1
  C  C280  1  0.43620000  0.50000000  0.71480000  1
  C  C281  1  0.43630000  0.50000000  0.65430000  1
  C  C282  1  0.46020000  0.00000000  0.50000000  1
  C  C283  1  0.31300000  0.00000000  0.50000000  1
  C  C284  1  0.23400000  0.00000000  0.50000000  1
  C  C285  1  0.96020000  0.50000000  0.00000000  1
  C  C286  1  0.81300000  0.50000000  0.00000000  1
  C  C287  1  0.73400000  0.50000000  0.00000000  1
  C  C288  1  0.53980000  0.00000000  0.50000000  1
  C  C289  1  0.68700000  0.00000000  0.50000000  1
  C  C290  1  0.76600000  0.00000000  0.50000000  1
  C  C291  1  0.03980000  0.50000000  0.00000000  1
  C  C292  1  0.18700000  0.50000000  0.00000000  1
  C  C293  1  0.26600000  0.50000000  0.00000000  1
  C  C294  1  0.00000000  0.19090000  0.50000000  1
  C  C295  1  0.00000000  0.25530000  0.50000000  1
  C  C296  1  0.00000000  0.37530000  0.50000000  1
  C  C297  1  1.00000000  0.43989000  0.50000000  1
  C  C298  1  1.00000000  0.80910000  0.50000000  1
  C  C299  1  0.00000000  0.74470000  0.50000000  1
  C  C300  1  0.00000000  0.62470000  0.50000000  1
  C  C301  1  0.00000000  0.56011000  0.50000000  1
  C  C302  1  0.50000000  0.50000000  0.19090000  1
  C  C303  1  0.50000000  0.50000000  0.25530000  1
  C  C304  1  0.50000000  0.50000000  0.37530000  1
  C  C305  1  0.50000000  0.50000000  0.43989000  1
  C  C306  1  0.50000000  0.50000000  0.80910000  1
  C  C307  1  0.50000000  0.50000000  0.74470000  1
  C  C308  1  0.50000000  0.50000000  0.62470000  1
  C  C309  1  0.50000000  0.50000000  0.56011000  1
  N  N310  1  0.95900000  0.50000000  0.10520000  1
  N  N311  1  0.54100000  0.10520000  0.50000000  1
  O  O312  1  0.07220000  0.05871000  0.34380000  1
  O  O313  1  0.13300000  0.10829000  0.41583000  1
  O  O314  1  0.07220000  0.94129000  0.65620000  1
  O  O315  1  0.13300000  0.89171000  0.58417000  1
  O  O316  1  0.57220000  0.65620000  0.05871000  1
  O  O317  1  0.63300000  0.58417000  0.10829000  1
  O  O318  1  0.57220000  0.34380000  0.94129000  1
  O  O319  1  0.63300000  0.41583000  0.89171000  1
  O  O320  1  0.92780000  0.94129000  0.34380000  1
  O  O321  1  0.86700000  0.89171000  0.41583000  1
  O  O322  1  0.92780000  0.05871000  0.65620000  1
  O  O323  1  0.86700000  0.10829000  0.58417000  1
  O  O324  1  0.42780000  0.34380000  0.05871000  1
  O  O325  1  0.36700000  0.41583000  0.10829000  1
  O  O326  1  0.42780000  0.65620000  0.94129000  1
  O  O327  1  0.36700000  0.58417000  0.89171000  1
  O  O328  1  0.92780000  0.94129000  0.65620000  1
  O  O329  1  0.86700000  0.89171000  0.58417000  1
  O  O330  1  0.92780000  0.05871000  0.34380000  1
  O  O331  1  0.86700000  0.10829000  0.41583000  1
  O  O332  1  0.42780000  0.34380000  0.94129000  1
  O  O333  1  0.36700000  0.41583000  0.89171000  1
  O  O334  1  0.42780000  0.65620000  0.05871000  1
  O  O335  1  0.36700000  0.58417000  0.10829000  1
  O  O336  1  0.07220000  0.05871000  0.65620000  1
  O  O337  1  0.13300000  0.10829000  0.58417000  1
  O  O338  1  0.07220000  0.94129000  0.34380000  1
  O  O339  1  0.13300000  0.89171000  0.41583000  1
  O  O340  1  0.57220000  0.65620000  0.94129000  1
  O  O341  1  0.63300000  0.58417000  0.89171000  1
  O  O342  1  0.57220000  0.34380000  0.05871000  1
  O  O343  1  0.63300000  0.41583000  0.10829000  1
  O  O344  1  0.20650000  0.05580000  0.50000000  1
  O  O345  1  0.06080000  0.16770000  0.50000000  1
  O  O346  1  0.20650000  0.94420000  0.50000000  1
  O  O347  1  0.06080000  0.83230000  0.50000000  1
  O  O348  1  0.70650000  0.50000000  0.05580000  1
  O  O349  1  0.56080000  0.50000000  0.16770000  1
  O  O350  1  0.70650000  0.50000000  0.94420000  1
  O  O351  1  0.56080000  0.50000000  0.83230000  1
  O  O352  1  0.79350000  0.94420000  0.50000000  1
  O  O353  1  0.93920000  0.83230000  0.50000000  1
  O  O354  1  0.79350000  0.05580000  0.50000000  1
  O  O355  1  0.93920000  0.16770000  0.50000000  1
  O  O356  1  0.29350000  0.50000000  0.05580000  1
  O  O357  1  0.43920000  0.50000000  0.16770000  1
  O  O358  1  0.29350000  0.50000000  0.94420000  1
  O  O359  1  0.43920000  0.50000000  0.83230000  1
  O  O360  1  0.00000000  0.07500000  0.44610000  1
  O  O361  1  0.00000000  0.92500000  0.55390000  1
  O  O362  1  0.50000000  0.55390000  0.07500000  1
  O  O363  1  0.50000000  0.44610000  0.92500000  1
  O  O364  1  0.00000000  0.92500000  0.44610000  1
  O  O365  1  1.00000000  0.07500000  0.55390000  1
  O  O366  1  0.50000000  0.44610000  0.07500000  1
  O  O367  1  0.50000000  0.55390000  0.92500000  1
  O  O368  1  0.09250000  1.00000000  0.44660000  1
  O  O369  1  0.09250000  1.00000000  0.55340000  1
  O  O370  1  0.59250000  0.55340000  0.00000000  1
  O  O371  1  0.59250000  0.44660000  0.00000000  1
  O  O372  1  0.90750000  1.00000000  0.44660000  1
  O  O373  1  0.90750000  1.00000000  0.55340000  1
  O  O374  1  0.40750000  0.44660000  0.00000000  1
  O  O375  1  0.40750000  0.55340000  0.00000000  1
  F  F376  1  0.37890000  0.22420000  0.29490000  1
  F  F377  1  0.30330000  0.28960000  0.32790000  1
  F  F378  1  0.33740000  0.21180000  0.37660000  1
  F  F379  1  0.37890000  0.77580000  0.70510000  1
  F  F380  1  0.30330000  0.71040000  0.67210000  1
  F  F381  1  0.33740000  0.78820000  0.62340000  1
  F  F382  1  0.87890000  0.70510000  0.22420000  1
  F  F383  1  0.80330000  0.67210000  0.28960000  1
  F  F384  1  0.83740000  0.62340000  0.21180000  1
  F  F385  1  0.87890000  0.29490000  0.77580000  1
  F  F386  1  0.80330000  0.32790000  0.71040000  1
  F  F387  1  0.83740000  0.37660000  0.78820000  1
  F  F388  1  0.81440000  0.83830000  0.11570000  1
  F  F389  1  0.91670000  0.86800000  0.15080000  1
  F  F390  1  0.89110000  0.77500000  0.15140000  1
  F  F391  1  0.81440000  0.16170000  0.88430000  1
  F  F392  1  0.91670000  0.13200000  0.84920000  1
  F  F393  1  0.89110000  0.22500000  0.84860000  1
  F  F394  1  0.31440000  0.11570000  0.16170000  1
  F  F395  1  0.41670000  0.15080000  0.13200000  1
  F  F396  1  0.39110000  0.15140000  0.22500000  1
  F  F397  1  0.31440000  0.88430000  0.83830000  1
  F  F398  1  0.41670000  0.84920000  0.86800000  1
  F  F399  1  0.39110000  0.84860000  0.77500000  1
  F  F400  1  0.81440000  0.83830000  0.88430000  1
  F  F401  1  0.91670000  0.86800000  0.84920000  1
  F  F402  1  0.89110000  0.77500000  0.84860000  1
  F  F403  1  0.81440000  0.16170000  0.11570000  1
  F  F404  1  0.91670000  0.13200000  0.15080000  1
  F  F405  1  0.89110000  0.22500000  0.15140000  1
  F  F406  1  0.31440000  0.11570000  0.83830000  1
  F  F407  1  0.41670000  0.15080000  0.86800000  1
  F  F408  1  0.39110000  0.15140000  0.77500000  1
  F  F409  1  0.12110000  0.70510000  0.22420000  1
  F  F410  1  0.19670000  0.67210000  0.28960000  1
  F  F411  1  0.16260000  0.62340000  0.21180000  1
  F  F412  1  0.37890000  0.22420000  0.70510000  1
  F  F413  1  0.30330000  0.28960000  0.67210000  1
  F  F414  1  0.33740000  0.21180000  0.62340000  1
  F  F415  1  0.18560000  0.83830000  0.11570000  1
  F  F416  1  0.08330000  0.86800000  0.15080000  1
  F  F417  1  0.10890000  0.77500000  0.15140000  1
  F  F418  1  0.87890000  0.70510000  0.77580000  1
  F  F419  1  0.80330000  0.67210000  0.71040000  1
  F  F420  1  0.83740000  0.62340000  0.78820000  1
  F  F421  1  0.87890000  0.29490000  0.22420000  1
  F  F422  1  0.80330000  0.32790000  0.28960000  1
  F  F423  1  0.83740000  0.37660000  0.21180000  1
