# generated using pymatgen
data_Zr3H23C49N(O4F3)4
_symmetry_space_group_name_H-M   'P 1'
_cell_length_a   18.86840000
_cell_length_b   23.09220000
_cell_length_c   23.09220000
_cell_angle_alpha   90.00000000
_cell_angle_beta   90.00000000
_cell_angle_gamma   90.00000000
_symmetry_Int_Tables_number   1
_chemical_formula_structural   Zr3H23C49N(O4F3)4
_chemical_formula_sum   'Zr12 H92 C196 N4 O64 F48'
_cell_volume   10061.56865533
_cell_formula_units_Z   4
loop_
 _symmetry_equiv_pos_site_id
 _symmetry_equiv_pos_as_xyz
  1  'x, y, z'
loop_
 _atom_site_type_symbol
 _atom_site_label
 _atom_site_symmetry_multiplicity
 _atom_site_fract_x
 _atom_site_fract_y
 _atom_site_fract_z
 _atom_site_occupancy
  Zr  Zr0  1  0.09231000  0.50000000  0.07552000  1
  Zr  Zr1  1  0.09231000  0.50000000  0.92448000  1
  Zr  Zr2  1  0.59231000  0.92448000  0.50000000  1
  Zr  Zr3  1  0.59231000  0.07552000  0.50000000  1
  Zr  Zr4  1  0.90769000  0.50000000  0.07552000  1
  Zr  Zr5  1  0.90769000  0.50000000  0.92448000  1
  Zr  Zr6  1  0.40769000  0.07552000  0.50000000  1
  Zr  Zr7  1  0.40769000  0.92448000  0.50000000  1
  Zr  Zr8  1  1.00000000  0.39232000  0.00000000  1
  Zr  Zr9  1  0.00000000  0.60768000  0.00000000  1
  Zr  Zr10  1  0.50000000  0.00000000  0.39232000  1
  Zr  Zr11  1  0.50000000  0.00000000  0.60768000  1
  H  H12  1  0.10120000  0.24920000  0.10520000  1
  H  H13  1  0.22580000  0.37610000  0.16600000  1
  H  H14  1  0.29040000  0.30910000  0.21960000  1
  H  H15  1  0.10120000  0.75080000  0.89480000  1
  H  H16  1  0.22580000  0.62390000  0.83400000  1
  H  H17  1  0.29040000  0.69090000  0.78040000  1
  H  H18  1  0.06760000  0.56870000  0.55030000  1
  H  H19  1  0.58340000  0.59570000  0.41514000  1
  H  H20  1  0.60630000  0.53710000  0.39210000  1
  H  H21  1  0.60120000  0.89480000  0.24920000  1
  H  H22  1  0.72580000  0.83400000  0.37610000  1
  H  H23  1  0.79040000  0.78040000  0.30910000  1
  H  H24  1  0.60120000  0.10520000  0.75080000  1
  H  H25  1  0.72580000  0.16600000  0.62390000  1
  H  H26  1  0.66350000  0.16190000  0.81810000  1
  H  H27  1  0.89880000  0.75080000  0.10520000  1
  H  H28  1  0.77420000  0.62390000  0.16600000  1
  H  H29  1  0.83650000  0.81810000  0.16190000  1
  H  H30  1  0.91660000  0.41514000  0.59570000  1
  H  H31  1  0.89370000  0.39210000  0.53710000  1
  H  H32  1  0.89880000  0.24920000  0.89480000  1
  H  H33  1  0.77420000  0.37610000  0.83400000  1
  H  H34  1  0.70960000  0.30910000  0.78040000  1
  H  H35  1  0.39880000  0.10520000  0.24920000  1
  H  H36  1  0.27420000  0.16600000  0.37610000  1
  H  H37  1  0.33650000  0.16190000  0.18190000  1
  H  H38  1  0.39880000  0.89480000  0.75080000  1
  H  H39  1  0.27420000  0.83400000  0.62390000  1
  H  H40  1  0.43240000  0.55030000  0.56870000  1
  H  H41  1  0.33650000  0.83810000  0.81810000  1
  H  H42  1  0.89880000  0.75080000  0.89480000  1
  H  H43  1  0.77420000  0.62390000  0.83400000  1
  H  H44  1  0.83650000  0.81810000  0.83810000  1
  H  H45  1  0.89880000  0.24920000  0.10520000  1
  H  H46  1  0.77420000  0.37610000  0.16600000  1
  H  H47  1  0.70960000  0.30910000  0.21960000  1
  H  H48  1  0.93240000  0.43130000  0.44970000  1
  H  H49  1  0.39880000  0.10520000  0.75080000  1
  H  H50  1  0.27420000  0.16600000  0.62390000  1
  H  H51  1  0.43240000  0.44970000  0.56870000  1
  H  H52  1  0.33650000  0.16190000  0.81810000  1
  H  H53  1  0.39880000  0.89480000  0.24920000  1
  H  H54  1  0.27420000  0.83400000  0.37610000  1
  H  H55  1  0.33650000  0.83810000  0.18190000  1
  H  H56  1  0.10120000  0.24920000  0.89480000  1
  H  H57  1  0.22580000  0.37610000  0.83400000  1
  H  H58  1  0.29040000  0.30910000  0.78040000  1
  H  H59  1  0.10120000  0.75080000  0.10520000  1
  H  H60  1  0.22580000  0.62390000  0.16600000  1
  H  H61  1  0.29040000  0.69090000  0.21960000  1
  H  H62  1  0.06760000  0.56870000  0.44970000  1
  H  H63  1  0.60120000  0.89480000  0.75080000  1
  H  H64  1  0.72580000  0.83400000  0.62390000  1
  H  H65  1  0.79040000  0.78040000  0.69090000  1
  H  H66  1  0.60120000  0.10520000  0.24920000  1
  H  H67  1  0.72580000  0.16600000  0.37610000  1
  H  H68  1  0.79040000  0.21960000  0.30910000  1
  H  H69  1  0.56760000  0.44970000  0.43130000  1
  H  H70  1  0.32380000  0.50000000  0.91210000  1
  H  H71  1  0.10750000  0.50000000  0.26420000  1
  H  H72  1  0.10750000  0.50000000  0.36570000  1
  H  H73  1  0.43440000  0.50000000  0.86180000  1
  H  H74  1  0.50520000  0.50000000  0.89350000  1
  H  H75  1  0.32380000  0.50000000  0.08790000  1
  H  H76  1  0.10750000  0.50000000  0.73580000  1
  H  H77  1  0.10750000  0.50000000  0.63430000  1
  H  H78  1  0.44780000  0.50000000  0.08790000  1
  H  H79  1  0.82380000  0.08790000  0.50000000  1
  H  H80  1  0.60750000  0.73580000  0.50000000  1
  H  H81  1  0.60750000  0.63430000  0.50000000  1
  H  H82  1  0.94780000  0.08790000  0.50000000  1
  H  H83  1  0.82380000  0.91210000  0.50000000  1
  H  H84  1  0.60750000  0.26420000  0.50000000  1
  H  H85  1  0.60750000  0.36570000  0.50000000  1
  H  H86  1  0.94780000  0.91210000  0.50000000  1
  H  H87  1  0.67620000  0.50000000  0.91210000  1
  H  H88  1  0.89250000  0.50000000  0.26420000  1
  H  H89  1  0.89250000  0.50000000  0.36570000  1
  H  H90  1  0.55220000  0.50000000  0.91210000  1
  H  H91  1  0.67620000  0.50000000  0.08790000  1
  H  H92  1  0.89250000  0.50000000  0.73580000  1
  H  H93  1  0.89250000  0.50000000  0.63430000  1
  H  H94  1  0.55220000  0.50000000  0.08790000  1
  H  H95  1  0.17620000  0.91210000  0.50000000  1
  H  H96  1  0.39250000  0.26420000  0.50000000  1
  H  H97  1  0.39250000  0.36570000  0.50000000  1
  H  H98  1  0.05220000  0.91210000  0.50000000  1
  H  H99  1  0.17620000  0.08790000  0.50000000  1
  H  H100  1  0.39250000  0.73580000  0.50000000  1
  H  H101  1  0.39250000  0.63430000  0.50000000  1
  H  H102  1  0.06560000  0.13820000  0.50000000  1
  H  H103  1  0.99480000  0.10650000  0.50000000  1
  C  C104  1  0.23120000  0.23920000  0.19880000  1
  C  C105  1  0.17630000  0.22170000  0.16330000  1
  C  C106  1  0.13910000  0.26180000  0.12920000  1
  C  C107  1  0.15750000  0.31870000  0.13040000  1
  C  C108  1  0.21310000  0.33640000  0.16480000  1
  C  C109  1  0.25070000  0.29660000  0.19760000  1
  C  C110  1  0.11730000  0.36300000  0.09650000  1
  C  C111  1  0.14390000  0.16270000  0.16680000  1
  C  C112  1  0.23120000  0.76080000  0.80120000  1
  C  C113  1  0.17630000  0.77830000  0.83670000  1
  C  C114  1  0.13910000  0.73820000  0.87080000  1
  C  C115  1  0.15750000  0.68130000  0.86960000  1
  C  C116  1  0.21310000  0.66360000  0.83520000  1
  C  C117  1  0.25070000  0.70340000  0.80240000  1
  C  C118  1  0.11730000  0.63700000  0.90350000  1
  C  C119  1  0.14390000  0.83730000  0.83320000  1
  C  C120  1  0.04010000  0.54069000  0.53023000  1
  C  C121  1  0.73120000  0.80120000  0.23920000  1
  C  C122  1  0.67630000  0.83670000  0.22170000  1
  C  C123  1  0.63910000  0.87080000  0.26180000  1
  C  C124  1  0.65750000  0.86960000  0.31870000  1
  C  C125  1  0.71310000  0.83520000  0.33640000  1
  C  C126  1  0.75070000  0.80240000  0.29660000  1
  C  C127  1  0.61730000  0.90350000  0.36300000  1
  C  C128  1  0.64390000  0.83320000  0.16270000  1
  C  C129  1  0.54010000  0.53023000  0.45931000  1
  C  C130  1  0.73120000  0.19880000  0.76080000  1
  C  C131  1  0.67630000  0.16330000  0.77830000  1
  C  C132  1  0.63910000  0.12920000  0.73820000  1
  C  C133  1  0.65750000  0.13040000  0.68130000  1
  C  C134  1  0.71310000  0.16480000  0.66360000  1
  C  C135  1  0.75070000  0.19760000  0.70340000  1
  C  C136  1  0.61730000  0.09650000  0.63700000  1
  C  C137  1  0.81110000  0.23200000  0.67920000  1
  C  C138  1  0.76880000  0.76080000  0.19880000  1
  C  C139  1  0.82370000  0.77830000  0.16330000  1
  C  C140  1  0.86090000  0.73820000  0.12920000  1
  C  C141  1  0.84250000  0.68130000  0.13040000  1
  C  C142  1  0.78690000  0.66360000  0.16480000  1
  C  C143  1  0.74930000  0.70340000  0.19760000  1
  C  C144  1  0.88270000  0.63700000  0.09650000  1
  C  C145  1  0.68890000  0.67920000  0.23200000  1
  C  C146  1  0.76880000  0.23920000  0.80120000  1
  C  C147  1  0.82370000  0.22170000  0.83670000  1
  C  C148  1  0.86090000  0.26180000  0.87080000  1
  C  C149  1  0.84250000  0.31870000  0.86960000  1
  C  C150  1  0.78690000  0.33640000  0.83520000  1
  C  C151  1  0.74930000  0.29660000  0.80240000  1
  C  C152  1  0.88270000  0.36300000  0.90350000  1
  C  C153  1  0.85610000  0.16270000  0.83320000  1
  C  C154  1  0.95990000  0.45931000  0.53023000  1
  C  C155  1  0.26880000  0.19880000  0.23920000  1
  C  C156  1  0.32370000  0.16330000  0.22170000  1
  C  C157  1  0.36090000  0.12920000  0.26180000  1
  C  C158  1  0.34250000  0.13040000  0.31870000  1
  C  C159  1  0.28690000  0.16480000  0.33640000  1
  C  C160  1  0.24930000  0.19760000  0.29660000  1
  C  C161  1  0.38270000  0.09650000  0.36300000  1
  C  C162  1  0.18890000  0.23200000  0.32080000  1
  C  C163  1  0.26880000  0.80120000  0.76080000  1
  C  C164  1  0.32370000  0.83670000  0.77830000  1
  C  C165  1  0.36090000  0.87080000  0.73820000  1
  C  C166  1  0.34250000  0.86960000  0.68130000  1
  C  C167  1  0.28690000  0.83520000  0.66360000  1
  C  C168  1  0.24930000  0.80240000  0.70340000  1
  C  C169  1  0.38270000  0.90350000  0.63700000  1
  C  C170  1  0.45990000  0.53023000  0.54069000  1
  C  C171  1  0.18890000  0.76800000  0.67920000  1
  C  C172  1  0.76880000  0.76080000  0.80120000  1
  C  C173  1  0.82370000  0.77830000  0.83670000  1
  C  C174  1  0.86090000  0.73820000  0.87080000  1
  C  C175  1  0.84250000  0.68130000  0.86960000  1
  C  C176  1  0.78690000  0.66360000  0.83520000  1
  C  C177  1  0.74930000  0.70340000  0.80240000  1
  C  C178  1  0.88270000  0.63700000  0.90350000  1
  C  C179  1  0.68890000  0.67920000  0.76800000  1
  C  C180  1  0.76880000  0.23920000  0.19880000  1
  C  C181  1  0.82370000  0.22170000  0.16330000  1
  C  C182  1  0.86090000  0.26180000  0.12920000  1
  C  C183  1  0.84250000  0.31870000  0.13040000  1
  C  C184  1  0.78690000  0.33640000  0.16480000  1
  C  C185  1  0.74930000  0.29660000  0.19760000  1
  C  C186  1  0.88270000  0.36300000  0.09650000  1
  C  C187  1  0.85610000  0.16270000  0.16680000  1
  C  C188  1  0.95990000  0.45931000  0.46977000  1
  C  C189  1  0.26880000  0.19880000  0.76080000  1
  C  C190  1  0.32370000  0.16330000  0.77830000  1
  C  C191  1  0.36090000  0.12920000  0.73820000  1
  C  C192  1  0.34250000  0.13040000  0.68130000  1
  C  C193  1  0.28690000  0.16480000  0.66360000  1
  C  C194  1  0.24930000  0.19760000  0.70340000  1
  C  C195  1  0.38270000  0.09650000  0.63700000  1
  C  C196  1  0.45990000  0.46977000  0.54069000  1
  C  C197  1  0.18890000  0.23200000  0.67920000  1
  C  C198  1  0.26880000  0.80120000  0.23920000  1
  C  C199  1  0.32370000  0.83670000  0.22170000  1
  C  C200  1  0.36090000  0.87080000  0.26180000  1
  C  C201  1  0.34250000  0.86960000  0.31870000  1
  C  C202  1  0.28690000  0.83520000  0.33640000  1
  C  C203  1  0.24930000  0.80240000  0.29660000  1
  C  C204  1  0.38270000  0.90350000  0.36300000  1
  C  C205  1  0.18890000  0.76800000  0.32080000  1
  C  C206  1  0.23120000  0.23920000  0.80120000  1
  C  C207  1  0.17630000  0.22170000  0.83670000  1
  C  C208  1  0.13910000  0.26180000  0.87080000  1
  C  C209  1  0.15750000  0.31870000  0.86960000  1
  C  C210  1  0.21310000  0.33640000  0.83520000  1
  C  C211  1  0.25070000  0.29660000  0.80240000  1
  C  C212  1  0.11730000  0.36300000  0.90350000  1
  C  C213  1  0.14390000  0.16270000  0.83320000  1
  C  C214  1  0.23120000  0.76080000  0.19880000  1
  C  C215  1  0.17630000  0.77830000  0.16330000  1
  C  C216  1  0.13910000  0.73820000  0.12920000  1
  C  C217  1  0.15750000  0.68130000  0.13040000  1
  C  C218  1  0.21310000  0.66360000  0.16480000  1
  C  C219  1  0.25070000  0.70340000  0.19760000  1
  C  C220  1  0.11730000  0.63700000  0.09650000  1
  C  C221  1  0.14390000  0.83730000  0.16680000  1
  C  C222  1  0.04010000  0.54069000  0.46977000  1
  C  C223  1  0.73120000  0.80120000  0.76080000  1
  C  C224  1  0.67630000  0.83670000  0.77830000  1
  C  C225  1  0.63910000  0.87080000  0.73820000  1
  C  C226  1  0.65750000  0.86960000  0.68130000  1
  C  C227  1  0.71310000  0.83520000  0.66360000  1
  C  C228  1  0.75070000  0.80240000  0.70340000  1
  C  C229  1  0.61730000  0.90350000  0.63700000  1
  C  C230  1  0.64390000  0.83320000  0.83730000  1
  C  C231  1  0.73120000  0.19880000  0.23920000  1
  C  C232  1  0.67630000  0.16330000  0.22170000  1
  C  C233  1  0.63910000  0.12920000  0.26180000  1
  C  C234  1  0.65750000  0.13040000  0.31870000  1
  C  C235  1  0.71310000  0.16480000  0.33640000  1
  C  C236  1  0.75070000  0.19760000  0.29660000  1
  C  C237  1  0.61730000  0.09650000  0.36300000  1
  C  C238  1  0.64390000  0.16680000  0.16270000  1
  C  C239  1  0.54010000  0.46977000  0.45931000  1
  C  C240  1  0.34900000  0.50000000  0.94771000  1
  C  C241  1  0.42270000  0.50000000  0.94781000  1
  C  C242  1  0.06390000  0.50000000  0.28490000  1
  C  C243  1  0.06390000  0.50000000  0.34510000  1
  C  C244  1  0.34900000  0.50000000  0.05229000  1
  C  C245  1  0.42270000  0.50000000  0.05219000  1
  C  C246  1  0.06390000  0.50000000  0.71510000  1
  C  C247  1  0.06390000  0.50000000  0.65490000  1
  C  C248  1  0.84900000  0.05229000  0.50000000  1
  C  C249  1  0.92270000  0.05219000  0.50000000  1
  C  C250  1  0.56390000  0.71510000  0.50000000  1
  C  C251  1  0.56390000  0.65490000  0.50000000  1
  C  C252  1  0.84900000  0.94771000  0.50000000  1
  C  C253  1  0.92270000  0.94781000  0.50000000  1
  C  C254  1  0.56390000  0.28490000  0.50000000  1
  C  C255  1  0.56390000  0.34510000  0.50000000  1
  C  C256  1  0.65100000  0.50000000  0.94771000  1
  C  C257  1  0.57730000  0.50000000  0.94781000  1
  C  C258  1  0.93610000  0.50000000  0.28490000  1
  C  C259  1  0.93610000  0.50000000  0.34510000  1
  C  C260  1  0.65100000  0.50000000  0.05229000  1
  C  C261  1  0.57730000  0.50000000  0.05219000  1
  C  C262  1  0.93610000  0.50000000  0.71510000  1
  C  C263  1  0.93610000  0.50000000  0.65490000  1
  C  C264  1  0.15100000  0.94771000  0.50000000  1
  C  C265  1  0.07730000  0.94781000  0.50000000  1
  C  C266  1  0.43610000  0.28490000  0.50000000  1
  C  C267  1  0.43610000  0.34510000  0.50000000  1
  C  C268  1  0.15100000  0.05229000  0.50000000  1
  C  C269  1  0.07730000  0.05219000  0.50000000  1
  C  C270  1  0.43610000  0.71510000  0.50000000  1
  C  C271  1  0.43610000  0.65490000  0.50000000  1
  C  C272  1  0.23510000  0.50000000  0.00000000  1
  C  C273  1  0.31240000  0.50000000  0.00000000  1
  C  C274  1  0.46020000  0.50000000  0.00000000  1
  C  C275  1  0.73510000  0.00000000  0.50000000  1
  C  C276  1  0.81240000  0.00000000  0.50000000  1
  C  C277  1  0.96020000  0.00000000  0.50000000  1
  C  C278  1  0.76490000  0.50000000  0.00000000  1
  C  C279  1  0.68760000  0.50000000  0.00000000  1
  C  C280  1  0.53980000  0.50000000  0.00000000  1
  C  C281  1  0.26490000  0.00000000  0.50000000  1
  C  C282  1  0.18760000  0.00000000  0.50000000  1
  C  C283  1  0.03980000  0.00000000  0.50000000  1
  C  C284  1  0.00000000  0.50000000  0.19050000  1
  C  C285  1  1.00000000  0.50000000  0.25500000  1
  C  C286  1  0.00000000  0.50000000  0.37520000  1
  C  C287  1  0.00000000  0.50000000  0.43972000  1
  C  C288  1  0.00000000  0.50000000  0.80950000  1
  C  C289  1  0.00000000  0.50000000  0.74500000  1
  C  C290  1  0.00000000  0.50000000  0.62480000  1
  C  C291  1  0.00000000  0.50000000  0.56028000  1
  C  C292  1  0.50000000  0.80950000  0.50000000  1
  C  C293  1  0.50000000  0.74500000  0.50000000  1
  C  C294  1  0.50000000  0.62480000  0.50000000  1
  C  C295  1  0.50000000  0.56028000  0.50000000  1
  C  C296  1  0.50000000  0.19050000  0.50000000  1
  C  C297  1  0.50000000  0.25500000  0.50000000  1
  C  C298  1  0.50000000  0.37520000  0.50000000  1
  C  C299  1  0.50000000  0.43972000  0.50000000  1
  N  N300  1  0.58170000  0.55770000  0.41700000  1
  N  N301  1  0.91830000  0.41700000  0.55770000  1
  N  N302  1  0.45860000  0.50000000  0.89440000  1
  N  N303  1  0.04140000  0.10560000  0.50000000  1
  O  O304  1  0.13290000  0.41565000  0.10798000  1
  O  O305  1  0.07245000  0.34447000  0.05890000  1
  O  O306  1  0.13290000  0.58435000  0.89202000  1
  O  O307  1  0.07245000  0.65553000  0.94110000  1
  O  O308  1  0.63290000  0.89202000  0.41565000  1
  O  O309  1  0.57245000  0.94110000  0.34447000  1
  O  O310  1  0.63290000  0.10798000  0.58435000  1
  O  O311  1  0.57245000  0.05890000  0.65553000  1
  O  O312  1  0.86710000  0.58435000  0.10798000  1
  O  O313  1  0.92755000  0.65553000  0.05890000  1
  O  O314  1  0.86710000  0.41565000  0.89202000  1
  O  O315  1  0.92755000  0.34447000  0.94110000  1
  O  O316  1  0.36710000  0.10798000  0.41565000  1
  O  O317  1  0.42755000  0.05890000  0.34447000  1
  O  O318  1  0.36710000  0.89202000  0.58435000  1
  O  O319  1  0.42755000  0.94110000  0.65553000  1
  O  O320  1  0.86710000  0.58435000  0.89202000  1
  O  O321  1  0.92755000  0.65553000  0.94110000  1
  O  O322  1  0.86710000  0.41565000  0.10798000  1
  O  O323  1  0.92755000  0.34447000  0.05890000  1
  O  O324  1  0.36710000  0.10798000  0.58435000  1
  O  O325  1  0.42755000  0.05890000  0.65553000  1
  O  O326  1  0.36710000  0.89202000  0.41565000  1
  O  O327  1  0.42755000  0.94110000  0.34447000  1
  O  O328  1  0.13290000  0.41565000  0.89202000  1
  O  O329  1  0.07245000  0.34447000  0.94110000  1
  O  O330  1  0.13290000  0.58435000  0.10798000  1
  O  O331  1  0.07245000  0.65553000  0.05890000  1
  O  O332  1  0.63290000  0.89202000  0.58435000  1
  O  O333  1  0.57245000  0.94110000  0.65553000  1
  O  O334  1  0.63290000  0.10798000  0.41565000  1
  O  O335  1  0.57245000  0.05890000  0.34447000  1
  O  O336  1  0.20650000  0.50000000  0.05330000  1
  O  O337  1  0.06100000  0.50000000  0.16790000  1
  O  O338  1  0.20650000  0.50000000  0.94670000  1
  O  O339  1  0.06100000  0.50000000  0.83210000  1
  O  O340  1  0.70650000  0.94670000  0.50000000  1
  O  O341  1  0.56100000  0.83210000  0.50000000  1
  O  O342  1  0.70650000  0.05330000  0.50000000  1
  O  O343  1  0.56100000  0.16790000  0.50000000  1
  O  O344  1  0.79350000  0.50000000  0.05330000  1
  O  O345  1  0.93900000  0.50000000  0.16790000  1
  O  O346  1  0.79350000  0.50000000  0.94670000  1
  O  O347  1  0.93900000  0.50000000  0.83210000  1
  O  O348  1  0.29350000  0.05330000  0.50000000  1
  O  O349  1  0.43900000  0.16790000  0.50000000  1
  O  O350  1  0.29350000  0.94670000  0.50000000  1
  O  O351  1  0.43900000  0.83210000  0.50000000  1
  O  O352  1  0.00000000  0.44610000  0.07500000  1
  O  O353  1  0.00000000  0.55390000  0.92500000  1
  O  O354  1  0.50000000  0.92500000  0.44610000  1
  O  O355  1  0.50000000  0.07500000  0.55390000  1
  O  O356  1  0.00000000  0.55390000  0.07500000  1
  O  O357  1  1.00000000  0.44610000  0.92500000  1
  O  O358  1  0.50000000  0.07500000  0.44610000  1
  O  O359  1  0.50000000  0.92500000  0.55390000  1
  O  O360  1  0.09200000  0.44620000  0.00000000  1
  O  O361  1  0.09200000  0.55380000  0.00000000  1
  O  O362  1  0.59200000  0.00000000  0.44620000  1
  O  O363  1  0.59200000  0.00000000  0.55380000  1
  O  O364  1  0.90800000  0.55380000  0.00000000  1
  O  O365  1  0.90800000  0.44620000  0.00000000  1
  O  O366  1  0.40800000  0.00000000  0.44620000  1
  O  O367  1  0.40800000  0.00000000  0.55380000  1
  F  F368  1  0.08700000  0.14930000  0.12900000  1
  F  F369  1  0.11100000  0.14780000  0.22150000  1
  F  F370  1  0.19050000  0.11580000  0.15750000  1
  F  F371  1  0.08700000  0.85070000  0.87100000  1
  F  F372  1  0.11100000  0.85220000  0.77850000  1
  F  F373  1  0.19050000  0.88420000  0.84250000  1
  F  F374  1  0.58700000  0.87100000  0.14930000  1
  F  F375  1  0.61100000  0.77850000  0.14780000  1
  F  F376  1  0.69050000  0.84250000  0.11580000  1
  F  F377  1  0.87800000  0.22740000  0.70670000  1
  F  F378  1  0.83160000  0.21900000  0.62020000  1
  F  F379  1  0.80010000  0.29270000  0.67510000  1
  F  F380  1  0.62200000  0.70670000  0.22740000  1
  F  F381  1  0.66840000  0.62020000  0.21900000  1
  F  F382  1  0.69990000  0.67510000  0.29270000  1
  F  F383  1  0.91300000  0.14930000  0.87100000  1
  F  F384  1  0.88900000  0.14780000  0.77850000  1
  F  F385  1  0.80950000  0.11580000  0.84250000  1
  F  F386  1  0.12200000  0.22740000  0.29330000  1
  F  F387  1  0.16840000  0.21900000  0.37980000  1
  F  F388  1  0.19990000  0.29270000  0.32490000  1
  F  F389  1  0.12200000  0.77260000  0.70670000  1
  F  F390  1  0.16840000  0.78100000  0.62020000  1
  F  F391  1  0.19990000  0.70730000  0.67510000  1
  F  F392  1  0.62200000  0.70670000  0.77260000  1
  F  F393  1  0.66840000  0.62020000  0.78100000  1
  F  F394  1  0.69990000  0.67510000  0.70730000  1
  F  F395  1  0.91300000  0.14930000  0.12900000  1
  F  F396  1  0.88900000  0.14780000  0.22150000  1
  F  F397  1  0.80950000  0.11580000  0.15750000  1
  F  F398  1  0.12200000  0.22740000  0.70670000  1
  F  F399  1  0.16840000  0.21900000  0.62020000  1
  F  F400  1  0.19990000  0.29270000  0.67510000  1
  F  F401  1  0.12200000  0.77260000  0.29330000  1
  F  F402  1  0.16840000  0.78100000  0.37980000  1
  F  F403  1  0.19990000  0.70730000  0.32490000  1
  F  F404  1  0.08700000  0.14930000  0.87100000  1
  F  F405  1  0.11100000  0.14780000  0.77850000  1
  F  F406  1  0.19050000  0.11580000  0.84250000  1
  F  F407  1  0.08700000  0.85070000  0.12900000  1
  F  F408  1  0.11100000  0.85220000  0.22150000  1
  F  F409  1  0.19050000  0.88420000  0.15750000  1
  F  F410  1  0.58700000  0.87100000  0.85070000  1
  F  F411  1  0.61100000  0.77850000  0.85220000  1
  F  F412  1  0.69050000  0.84250000  0.88420000  1
  F  F413  1  0.58700000  0.12900000  0.14930000  1
  F  F414  1  0.61100000  0.22150000  0.14780000  1
  F  F415  1  0.69050000  0.15750000  0.11580000  1
