# generated using pymatgen
data_Zr6H43C96N3(O4F3)8
_symmetry_space_group_name_H-M   'P 1'
_cell_length_a   18.74470000
_cell_length_b   23.15920000
_cell_length_c   23.15920000
_cell_angle_alpha   90.00000000
_cell_angle_beta   90.00000000
_cell_angle_gamma   90.00000000
_symmetry_Int_Tables_number   1
_chemical_formula_structural   Zr6H43C96N3(O4F3)8
_chemical_formula_sum   'Zr12 H86 C192 N6 O64 F48'
_cell_volume   10053.69256471
_cell_formula_units_Z   2
loop_
 _symmetry_equiv_pos_site_id
 _symmetry_equiv_pos_as_xyz
  1  'x, y, z'
loop_
 _atom_site_type_symbol
 _atom_site_label
 _atom_site_symmetry_multiplicity
 _atom_site_fract_x
 _atom_site_fract_y
 _atom_site_fract_z
 _atom_site_occupancy
  Zr  Zr0  1  0.09311000  0.50000000  0.07546000  1
  Zr  Zr1  1  0.09311000  0.50000000  0.92454000  1
  Zr  Zr2  1  0.59311000  0.92454000  0.50000000  1
  Zr  Zr3  1  0.59311000  0.07546000  0.50000000  1
  Zr  Zr4  1  0.90689000  0.50000000  0.07546000  1
  Zr  Zr5  1  0.90689000  0.50000000  0.92454000  1
  Zr  Zr6  1  0.40689000  0.07546000  0.50000000  1
  Zr  Zr7  1  0.40689000  0.92454000  0.50000000  1
  Zr  Zr8  1  0.00000000  0.39262000  0.00000000  1
  Zr  Zr9  1  1.00000000  0.60738000  0.00000000  1
  Zr  Zr10  1  0.50000000  0.00000000  0.39262000  1
  Zr  Zr11  1  0.50000000  0.00000000  0.60738000  1
  H  H12  1  0.09450000  0.25180000  0.11080000  1
  H  H13  1  0.23380000  0.37510000  0.16020000  1
  H  H14  1  0.07100000  0.43370000  0.44960000  1
  H  H15  1  0.15680000  0.18540000  0.16870000  1
  H  H16  1  0.09450000  0.74820000  0.88920000  1
  H  H17  1  0.23380000  0.62490000  0.83980000  1
  H  H18  1  0.29460000  0.69350000  0.78250000  1
  H  H19  1  0.58640000  0.59710000  0.41930000  1
  H  H20  1  0.61170000  0.53910000  0.39570000  1
  H  H21  1  0.59450000  0.88920000  0.25180000  1
  H  H22  1  0.73380000  0.83980000  0.37510000  1
  H  H23  1  0.79460000  0.78250000  0.30650000  1
  H  H24  1  0.59450000  0.11080000  0.74820000  1
  H  H25  1  0.73380000  0.16020000  0.62490000  1
  H  H26  1  0.79460000  0.21750000  0.69350000  1
  H  H27  1  0.90550000  0.74820000  0.11080000  1
  H  H28  1  0.76620000  0.62490000  0.16020000  1
  H  H29  1  0.92900000  0.56630000  0.44960000  1
  H  H30  1  0.84320000  0.81460000  0.16870000  1
  H  H31  1  0.90550000  0.25180000  0.88920000  1
  H  H32  1  0.76620000  0.37510000  0.83980000  1
  H  H33  1  0.84320000  0.18540000  0.83130000  1
  H  H34  1  0.40550000  0.11080000  0.25180000  1
  H  H35  1  0.26620000  0.16020000  0.37510000  1
  H  H36  1  0.20540000  0.21750000  0.30650000  1
  H  H37  1  0.40550000  0.88920000  0.74820000  1
  H  H38  1  0.26620000  0.83980000  0.62490000  1
  H  H39  1  0.42900000  0.55040000  0.56630000  1
  H  H40  1  0.34320000  0.83130000  0.81460000  1
  H  H41  1  0.91360000  0.58070000  0.59710000  1
  H  H42  1  0.88830000  0.60430000  0.53910000  1
  H  H43  1  0.90550000  0.74820000  0.88920000  1
  H  H44  1  0.76620000  0.62490000  0.83980000  1
  H  H45  1  0.70540000  0.69350000  0.78250000  1
  H  H46  1  0.90550000  0.25180000  0.11080000  1
  H  H47  1  0.76620000  0.37510000  0.16020000  1
  H  H48  1  0.84320000  0.18540000  0.16870000  1
  H  H49  1  0.40550000  0.11080000  0.74820000  1
  H  H50  1  0.26620000  0.16020000  0.62490000  1
  H  H51  1  0.42900000  0.44960000  0.56630000  1
  H  H52  1  0.34320000  0.16870000  0.81460000  1
  H  H53  1  0.40550000  0.88920000  0.25180000  1
  H  H54  1  0.26620000  0.83980000  0.37510000  1
  H  H55  1  0.20540000  0.78250000  0.30650000  1
  H  H56  1  0.09450000  0.25180000  0.88920000  1
  H  H57  1  0.23380000  0.37510000  0.83980000  1
  H  H58  1  0.29460000  0.30650000  0.78250000  1
  H  H59  1  0.07100000  0.43370000  0.55040000  1
  H  H60  1  0.09450000  0.74820000  0.11080000  1
  H  H61  1  0.23380000  0.62490000  0.16020000  1
  H  H62  1  0.15680000  0.81460000  0.16870000  1
  H  H63  1  0.59450000  0.88920000  0.74820000  1
  H  H64  1  0.73380000  0.83980000  0.62490000  1
  H  H65  1  0.65680000  0.83130000  0.81460000  1
  H  H66  1  0.59450000  0.11080000  0.25180000  1
  H  H67  1  0.73380000  0.16020000  0.37510000  1
  H  H68  1  0.79460000  0.21750000  0.30650000  1
  H  H69  1  0.57100000  0.44960000  0.43370000  1
  H  H70  1  0.32430000  0.50000000  0.91240000  1
  H  H71  1  0.10810000  0.50000000  0.26400000  1
  H  H72  1  0.10820000  0.50000000  0.36550000  1
  H  H73  1  0.44920000  0.50000000  0.91240000  1
  H  H74  1  0.32430000  0.50000000  0.08760000  1
  H  H75  1  0.10810000  0.50000000  0.73600000  1
  H  H76  1  0.10820000  0.50000000  0.63450000  1
  H  H77  1  0.82430000  0.08760000  0.50000000  1
  H  H78  1  0.60810000  0.73600000  0.50000000  1
  H  H79  1  0.60820000  0.63450000  0.50000000  1
  H  H80  1  0.94920000  0.08760000  0.50000000  1
  H  H81  1  0.82430000  0.91240000  0.50000000  1
  H  H82  1  0.60810000  0.26400000  0.50000000  1
  H  H83  1  0.60820000  0.36550000  0.50000000  1
  H  H84  1  0.67570000  0.50000000  0.91240000  1
  H  H85  1  0.89190000  0.50000000  0.26400000  1
  H  H86  1  0.89180000  0.50000000  0.36550000  1
  H  H87  1  0.55080000  0.50000000  0.91240000  1
  H  H88  1  0.67570000  0.50000000  0.08760000  1
  H  H89  1  0.89190000  0.50000000  0.73600000  1
  H  H90  1  0.89180000  0.50000000  0.63450000  1
  H  H91  1  0.17570000  0.91240000  0.50000000  1
  H  H92  1  0.39190000  0.26400000  0.50000000  1
  H  H93  1  0.39180000  0.36550000  0.50000000  1
  H  H94  1  0.17570000  0.08760000  0.50000000  1
  H  H95  1  0.39190000  0.73600000  0.50000000  1
  H  H96  1  0.39180000  0.63450000  0.50000000  1
  H  H97  1  0.05080000  0.08760000  0.50000000  1
  C  C98  1  0.23150000  0.23930000  0.19860000  1
  C  C99  1  0.17290000  0.22430000  0.16710000  1
  C  C100  1  0.13520000  0.26360000  0.13230000  1
  C  C101  1  0.15920000  0.31940000  0.13060000  1
  C  C102  1  0.21770000  0.33620000  0.16160000  1
  C  C103  1  0.25390000  0.29500000  0.19590000  1
  C  C104  1  0.11890000  0.36340000  0.09630000  1
  C  C105  1  0.04210000  0.46070000  0.46982000  1
  C  C106  1  0.31760000  0.31720000  0.22830000  1
  C  C107  1  0.23150000  0.76070000  0.80140000  1
  C  C108  1  0.17290000  0.77570000  0.83290000  1
  C  C109  1  0.13520000  0.73640000  0.86770000  1
  C  C110  1  0.15920000  0.68060000  0.86940000  1
  C  C111  1  0.21770000  0.66380000  0.83840000  1
  C  C112  1  0.25390000  0.70500000  0.80410000  1
  C  C113  1  0.11890000  0.63660000  0.90370000  1
  C  C114  1  0.14350000  0.83620000  0.83260000  1
  C  C115  1  0.73150000  0.80140000  0.23930000  1
  C  C116  1  0.67290000  0.83290000  0.22430000  1
  C  C117  1  0.63520000  0.86770000  0.26360000  1
  C  C118  1  0.65920000  0.86940000  0.31940000  1
  C  C119  1  0.71770000  0.83840000  0.33620000  1
  C  C120  1  0.75390000  0.80410000  0.29500000  1
  C  C121  1  0.61890000  0.90370000  0.36340000  1
  C  C122  1  0.64350000  0.83260000  0.16380000  1
  C  C123  1  0.54210000  0.53018000  0.46070000  1
  C  C124  1  0.73150000  0.19860000  0.76070000  1
  C  C125  1  0.67290000  0.16710000  0.77570000  1
  C  C126  1  0.63520000  0.13230000  0.73640000  1
  C  C127  1  0.65920000  0.13060000  0.68060000  1
  C  C128  1  0.71770000  0.16160000  0.66380000  1
  C  C129  1  0.75390000  0.19590000  0.70500000  1
  C  C130  1  0.61890000  0.09630000  0.63660000  1
  C  C131  1  0.64350000  0.16740000  0.83620000  1
  C  C132  1  0.76850000  0.76070000  0.19860000  1
  C  C133  1  0.82710000  0.77570000  0.16710000  1
  C  C134  1  0.86480000  0.73640000  0.13230000  1
  C  C135  1  0.84080000  0.68060000  0.13060000  1
  C  C136  1  0.78230000  0.66380000  0.16160000  1
  C  C137  1  0.74610000  0.70500000  0.19590000  1
  C  C138  1  0.88110000  0.63660000  0.09630000  1
  C  C139  1  0.95790000  0.53930000  0.46982000  1
  C  C140  1  0.68240000  0.68280000  0.22830000  1
  C  C141  1  0.76850000  0.23930000  0.80140000  1
  C  C142  1  0.82710000  0.22430000  0.83290000  1
  C  C143  1  0.86480000  0.26360000  0.86770000  1
  C  C144  1  0.84080000  0.31940000  0.86940000  1
  C  C145  1  0.78230000  0.33620000  0.83840000  1
  C  C146  1  0.74610000  0.29500000  0.80410000  1
  C  C147  1  0.88110000  0.36340000  0.90370000  1
  C  C148  1  0.68240000  0.31720000  0.77170000  1
  C  C149  1  0.26850000  0.19860000  0.23930000  1
  C  C150  1  0.32710000  0.16710000  0.22430000  1
  C  C151  1  0.36480000  0.13230000  0.26360000  1
  C  C152  1  0.34080000  0.13060000  0.31940000  1
  C  C153  1  0.28230000  0.16160000  0.33620000  1
  C  C154  1  0.24610000  0.19590000  0.29500000  1
  C  C155  1  0.38110000  0.09630000  0.36340000  1
  C  C156  1  0.35650000  0.16740000  0.16380000  1
  C  C157  1  0.26850000  0.80140000  0.76070000  1
  C  C158  1  0.32710000  0.83290000  0.77570000  1
  C  C159  1  0.36480000  0.86770000  0.73640000  1
  C  C160  1  0.34080000  0.86940000  0.68060000  1
  C  C161  1  0.28230000  0.83840000  0.66380000  1
  C  C162  1  0.24610000  0.80410000  0.70500000  1
  C  C163  1  0.38110000  0.90370000  0.63660000  1
  C  C164  1  0.45790000  0.53018000  0.53930000  1
  C  C165  1  0.18240000  0.77170000  0.68280000  1
  C  C166  1  0.76850000  0.76070000  0.80140000  1
  C  C167  1  0.82710000  0.77570000  0.83290000  1
  C  C168  1  0.86480000  0.73640000  0.86770000  1
  C  C169  1  0.84080000  0.68060000  0.86940000  1
  C  C170  1  0.78230000  0.66380000  0.83840000  1
  C  C171  1  0.74610000  0.70500000  0.80410000  1
  C  C172  1  0.88110000  0.63660000  0.90370000  1
  C  C173  1  0.85650000  0.83620000  0.83260000  1
  C  C174  1  0.95790000  0.53930000  0.53018000  1
  C  C175  1  0.76850000  0.23930000  0.19860000  1
  C  C176  1  0.82710000  0.22430000  0.16710000  1
  C  C177  1  0.86480000  0.26360000  0.13230000  1
  C  C178  1  0.84080000  0.31940000  0.13060000  1
  C  C179  1  0.78230000  0.33620000  0.16160000  1
  C  C180  1  0.74610000  0.29500000  0.19590000  1
  C  C181  1  0.88110000  0.36340000  0.09630000  1
  C  C182  1  0.68240000  0.31720000  0.22830000  1
  C  C183  1  0.26850000  0.19860000  0.76070000  1
  C  C184  1  0.32710000  0.16710000  0.77570000  1
  C  C185  1  0.36480000  0.13230000  0.73640000  1
  C  C186  1  0.34080000  0.13060000  0.68060000  1
  C  C187  1  0.28230000  0.16160000  0.66380000  1
  C  C188  1  0.24610000  0.19590000  0.70500000  1
  C  C189  1  0.38110000  0.09630000  0.63660000  1
  C  C190  1  0.45790000  0.46982000  0.53930000  1
  C  C191  1  0.18240000  0.22830000  0.68280000  1
  C  C192  1  0.26850000  0.80140000  0.23930000  1
  C  C193  1  0.32710000  0.83290000  0.22430000  1
  C  C194  1  0.36480000  0.86770000  0.26360000  1
  C  C195  1  0.34080000  0.86940000  0.31940000  1
  C  C196  1  0.28230000  0.83840000  0.33620000  1
  C  C197  1  0.24610000  0.80410000  0.29500000  1
  C  C198  1  0.38110000  0.90370000  0.36340000  1
  C  C199  1  0.35650000  0.83260000  0.16380000  1
  C  C200  1  0.23150000  0.23930000  0.80140000  1
  C  C201  1  0.17290000  0.22430000  0.83290000  1
  C  C202  1  0.13520000  0.26360000  0.86770000  1
  C  C203  1  0.15920000  0.31940000  0.86940000  1
  C  C204  1  0.21770000  0.33620000  0.83840000  1
  C  C205  1  0.25390000  0.29500000  0.80410000  1
  C  C206  1  0.11890000  0.36340000  0.90370000  1
  C  C207  1  0.14350000  0.16380000  0.83260000  1
  C  C208  1  0.04210000  0.46070000  0.53018000  1
  C  C209  1  0.23150000  0.76070000  0.19860000  1
  C  C210  1  0.17290000  0.77570000  0.16710000  1
  C  C211  1  0.13520000  0.73640000  0.13230000  1
  C  C212  1  0.15920000  0.68060000  0.13060000  1
  C  C213  1  0.21770000  0.66380000  0.16160000  1
  C  C214  1  0.25390000  0.70500000  0.19590000  1
  C  C215  1  0.11890000  0.63660000  0.09630000  1
  C  C216  1  0.31760000  0.68280000  0.22830000  1
  C  C217  1  0.73150000  0.80140000  0.76070000  1
  C  C218  1  0.67290000  0.83290000  0.77570000  1
  C  C219  1  0.63520000  0.86770000  0.73640000  1
  C  C220  1  0.65920000  0.86940000  0.68060000  1
  C  C221  1  0.71770000  0.83840000  0.66380000  1
  C  C222  1  0.75390000  0.80410000  0.70500000  1
  C  C223  1  0.61890000  0.90370000  0.63660000  1
  C  C224  1  0.81760000  0.77170000  0.68280000  1
  C  C225  1  0.73150000  0.19860000  0.23930000  1
  C  C226  1  0.67290000  0.16710000  0.22430000  1
  C  C227  1  0.63520000  0.13230000  0.26360000  1
  C  C228  1  0.65920000  0.13060000  0.31940000  1
  C  C229  1  0.71770000  0.16160000  0.33620000  1
  C  C230  1  0.75390000  0.19590000  0.29500000  1
  C  C231  1  0.61890000  0.09630000  0.36340000  1
  C  C232  1  0.64350000  0.16740000  0.16380000  1
  C  C233  1  0.54210000  0.46982000  0.46070000  1
  C  C234  1  0.42370000  0.50000000  0.94790000  1
  C  C235  1  0.34960000  0.50000000  0.94793000  1
  C  C236  1  0.06430000  0.50000000  0.28460000  1
  C  C237  1  0.06430000  0.50000000  0.34500000  1
  C  C238  1  0.34960000  0.50000000  0.05207000  1
  C  C239  1  0.06430000  0.50000000  0.71540000  1
  C  C240  1  0.06430000  0.50000000  0.65500000  1
  C  C241  1  0.92370000  0.05210000  0.50000000  1
  C  C242  1  0.84960000  0.05207000  0.50000000  1
  C  C243  1  0.56430000  0.71540000  0.50000000  1
  C  C244  1  0.56430000  0.65500000  0.50000000  1
  C  C245  1  0.84960000  0.94793000  0.50000000  1
  C  C246  1  0.56430000  0.28460000  0.50000000  1
  C  C247  1  0.56430000  0.34500000  0.50000000  1
  C  C248  1  0.57630000  0.50000000  0.94790000  1
  C  C249  1  0.65040000  0.50000000  0.94793000  1
  C  C250  1  0.93570000  0.50000000  0.28460000  1
  C  C251  1  0.93570000  0.50000000  0.34500000  1
  C  C252  1  0.65040000  0.50000000  0.05207000  1
  C  C253  1  0.93570000  0.50000000  0.71540000  1
  C  C254  1  0.93570000  0.50000000  0.65500000  1
  C  C255  1  0.15040000  0.94793000  0.50000000  1
  C  C256  1  0.43570000  0.28460000  0.50000000  1
  C  C257  1  0.43570000  0.34500000  0.50000000  1
  C  C258  1  0.07630000  0.05210000  0.50000000  1
  C  C259  1  0.15040000  0.05207000  0.50000000  1
  C  C260  1  0.43570000  0.71540000  0.50000000  1
  C  C261  1  0.43570000  0.65500000  0.50000000  1
  C  C262  1  0.23800000  0.50000000  0.00000000  1
  C  C263  1  0.31240000  0.50000000  0.00000000  1
  C  C264  1  0.46030000  0.50000000  0.00000000  1
  C  C265  1  0.73800000  0.00000000  0.50000000  1
  C  C266  1  0.81240000  0.00000000  0.50000000  1
  C  C267  1  0.96030000  0.00000000  0.50000000  1
  C  C268  1  0.76200000  0.50000000  0.00000000  1
  C  C269  1  0.68760000  0.50000000  0.00000000  1
  C  C270  1  0.53970000  0.50000000  0.00000000  1
  C  C271  1  0.26200000  0.00000000  0.50000000  1
  C  C272  1  0.18760000  0.00000000  0.50000000  1
  C  C273  1  0.03970000  0.00000000  0.50000000  1
  C  C274  1  0.00000000  0.50000000  0.19020000  1
  C  C275  1  0.00000000  0.50000000  0.25490000  1
  C  C276  1  0.00000000  0.50000000  0.37500000  1
  C  C277  1  0.00000000  0.50000000  0.43984000  1
  C  C278  1  0.00000000  0.50000000  0.80980000  1
  C  C279  1  1.00000000  0.50000000  0.74510000  1
  C  C280  1  0.00000000  0.50000000  0.62500000  1
  C  C281  1  1.00000000  0.50000000  0.56016000  1
  C  C282  1  0.50000000  0.80980000  0.50000000  1
  C  C283  1  0.50000000  0.74510000  0.50000000  1
  C  C284  1  0.50000000  0.62500000  0.50000000  1
  C  C285  1  0.50000000  0.56016000  0.50000000  1
  C  C286  1  0.50000000  0.19020000  0.50000000  1
  C  C287  1  0.50000000  0.25490000  0.50000000  1
  C  C288  1  0.50000000  0.37500000  0.50000000  1
  C  C289  1  0.50000000  0.43984000  0.50000000  1
  N  N290  1  0.58550000  0.55910000  0.42020000  1
  N  N291  1  0.91450000  0.57980000  0.55910000  1
  N  N292  1  0.42370000  0.50000000  0.05210000  1
  N  N293  1  0.92370000  0.94790000  0.50000000  1
  N  N294  1  0.57630000  0.50000000  0.05210000  1
  N  N295  1  0.07630000  0.94790000  0.50000000  1
  O  O296  1  0.13610000  0.41760000  0.10910000  1
  O  O297  1  0.07240000  0.34330000  0.05880000  1
  O  O298  1  0.13610000  0.58240000  0.89090000  1
  O  O299  1  0.07240000  0.65670000  0.94120000  1
  O  O300  1  0.63610000  0.89090000  0.41760000  1
  O  O301  1  0.57240000  0.94120000  0.34330000  1
  O  O302  1  0.63610000  0.10910000  0.58240000  1
  O  O303  1  0.57240000  0.05880000  0.65670000  1
  O  O304  1  0.86390000  0.58240000  0.10910000  1
  O  O305  1  0.92760000  0.65670000  0.05880000  1
  O  O306  1  0.86390000  0.41760000  0.89090000  1
  O  O307  1  0.92760000  0.34330000  0.94120000  1
  O  O308  1  0.36390000  0.10910000  0.41760000  1
  O  O309  1  0.42760000  0.05880000  0.34330000  1
  O  O310  1  0.36390000  0.89090000  0.58240000  1
  O  O311  1  0.42760000  0.94120000  0.65670000  1
  O  O312  1  0.86390000  0.58240000  0.89090000  1
  O  O313  1  0.92760000  0.65670000  0.94120000  1
  O  O314  1  0.86390000  0.41760000  0.10910000  1
  O  O315  1  0.92760000  0.34330000  0.05880000  1
  O  O316  1  0.36390000  0.10910000  0.58240000  1
  O  O317  1  0.42760000  0.05880000  0.65670000  1
  O  O318  1  0.36390000  0.89090000  0.41760000  1
  O  O319  1  0.42760000  0.94120000  0.34330000  1
  O  O320  1  0.13610000  0.41760000  0.89090000  1
  O  O321  1  0.07240000  0.34330000  0.94120000  1
  O  O322  1  0.13610000  0.58240000  0.10910000  1
  O  O323  1  0.07240000  0.65670000  0.05880000  1
  O  O324  1  0.63610000  0.89090000  0.58240000  1
  O  O325  1  0.57240000  0.94120000  0.65670000  1
  O  O326  1  0.63610000  0.10910000  0.41760000  1
  O  O327  1  0.57240000  0.05880000  0.34330000  1
  O  O328  1  0.20710000  0.50000000  0.05070000  1
  O  O329  1  0.06170000  0.50000000  0.16780000  1
  O  O330  1  0.20710000  0.50000000  0.94930000  1
  O  O331  1  0.06170000  0.50000000  0.83220000  1
  O  O332  1  0.70710000  0.94930000  0.50000000  1
  O  O333  1  0.56170000  0.83220000  0.50000000  1
  O  O334  1  0.70710000  0.05070000  0.50000000  1
  O  O335  1  0.56170000  0.16780000  0.50000000  1
  O  O336  1  0.79290000  0.50000000  0.05070000  1
  O  O337  1  0.93830000  0.50000000  0.16780000  1
  O  O338  1  0.79290000  0.50000000  0.94930000  1
  O  O339  1  0.93830000  0.50000000  0.83220000  1
  O  O340  1  0.29290000  0.05070000  0.50000000  1
  O  O341  1  0.43830000  0.16780000  0.50000000  1
  O  O342  1  0.29290000  0.94930000  0.50000000  1
  O  O343  1  0.43830000  0.83220000  0.50000000  1
  O  O344  1  0.00000000  0.44530000  0.07540000  1
  O  O345  1  0.00000000  0.55470000  0.92460000  1
  O  O346  1  0.50000000  0.92460000  0.44530000  1
  O  O347  1  0.50000000  0.07540000  0.55470000  1
  O  O348  1  0.00000000  0.55470000  0.07540000  1
  O  O349  1  0.00000000  0.44530000  0.92460000  1
  O  O350  1  0.50000000  0.07540000  0.44530000  1
  O  O351  1  0.50000000  0.92460000  0.55470000  1
  O  O352  1  0.09140000  0.44660000  0.00000000  1
  O  O353  1  0.09140000  0.55340000  0.00000000  1
  O  O354  1  0.59140000  1.00000000  0.44660000  1
  O  O355  1  0.59140000  0.00000000  0.55340000  1
  O  O356  1  0.90860000  0.55340000  0.00000000  1
  O  O357  1  0.90860000  0.44660000  0.00000000  1
  O  O358  1  0.40860000  1.00000000  0.44660000  1
  O  O359  1  0.40860000  0.00000000  0.55340000  1
  F  F360  1  0.30800000  0.32800000  0.28790000  1
  F  F361  1  0.34500000  0.37200000  0.20800000  1
  F  F362  1  0.38010000  0.28300000  0.22700000  1
  F  F363  1  0.10790000  0.84950000  0.77920000  1
  F  F364  1  0.08820000  0.84860000  0.87230000  1
  F  F365  1  0.18920000  0.88240000  0.83970000  1
  F  F366  1  0.60790000  0.77920000  0.15050000  1
  F  F367  1  0.58820000  0.87230000  0.15140000  1
  F  F368  1  0.68920000  0.83970000  0.11760000  1
  F  F369  1  0.60790000  0.22080000  0.84950000  1
  F  F370  1  0.58820000  0.12770000  0.84860000  1
  F  F371  1  0.68920000  0.16030000  0.88240000  1
  F  F372  1  0.69200000  0.67200000  0.28790000  1
  F  F373  1  0.65500000  0.62800000  0.20800000  1
  F  F374  1  0.61990000  0.71700000  0.22700000  1
  F  F375  1  0.69200000  0.32800000  0.71210000  1
  F  F376  1  0.65500000  0.37200000  0.79200000  1
  F  F377  1  0.61990000  0.28300000  0.77300000  1
  F  F378  1  0.39210000  0.22080000  0.15050000  1
  F  F379  1  0.41180000  0.12770000  0.15140000  1
  F  F380  1  0.31080000  0.16030000  0.11760000  1
  F  F381  1  0.19200000  0.71210000  0.67200000  1
  F  F382  1  0.15500000  0.79200000  0.62800000  1
  F  F383  1  0.11990000  0.77300000  0.71700000  1
  F  F384  1  0.89210000  0.84950000  0.77920000  1
  F  F385  1  0.91180000  0.84860000  0.87230000  1
  F  F386  1  0.81080000  0.88240000  0.83970000  1
  F  F387  1  0.69200000  0.32800000  0.28790000  1
  F  F388  1  0.65500000  0.37200000  0.20800000  1
  F  F389  1  0.61990000  0.28300000  0.22700000  1
  F  F390  1  0.19200000  0.28790000  0.67200000  1
  F  F391  1  0.15500000  0.20800000  0.62800000  1
  F  F392  1  0.11990000  0.22700000  0.71700000  1
  F  F393  1  0.39210000  0.77920000  0.15050000  1
  F  F394  1  0.41180000  0.87230000  0.15140000  1
  F  F395  1  0.31080000  0.83970000  0.11760000  1
  F  F396  1  0.10790000  0.15050000  0.77920000  1
  F  F397  1  0.08820000  0.15140000  0.87230000  1
  F  F398  1  0.18920000  0.11760000  0.83970000  1
  F  F399  1  0.30800000  0.67200000  0.28790000  1
  F  F400  1  0.34500000  0.62800000  0.20800000  1
  F  F401  1  0.38010000  0.71700000  0.22700000  1
  F  F402  1  0.80800000  0.71210000  0.67200000  1
  F  F403  1  0.84500000  0.79200000  0.62800000  1
  F  F404  1  0.88010000  0.77300000  0.71700000  1
  F  F405  1  0.60790000  0.22080000  0.15050000  1
  F  F406  1  0.58820000  0.12770000  0.15140000  1
  F  F407  1  0.68920000  0.16030000  0.11760000  1
