# generated using pymatgen
data_Zr6H44PdC97N2Cl2(O4F3)8
_symmetry_space_group_name_H-M   'P 1'
_cell_length_a   18.75840000
_cell_length_b   23.11720000
_cell_length_c   23.11720000
_cell_angle_alpha   90.00000000
_cell_angle_beta   90.00000000
_cell_angle_gamma   90.00000000
_symmetry_Int_Tables_number   1
_chemical_formula_structural   Zr6H44PdC97N2Cl2(O4F3)8
_chemical_formula_sum   'Zr12 H88 Pd2 C194 N4 Cl4 O64 F48'
_cell_volume   10024.58154846
_cell_formula_units_Z   2
loop_
 _symmetry_equiv_pos_site_id
 _symmetry_equiv_pos_as_xyz
  1  'x, y, z'
loop_
 _atom_site_type_symbol
 _atom_site_label
 _atom_site_symmetry_multiplicity
 _atom_site_fract_x
 _atom_site_fract_y
 _atom_site_fract_z
 _atom_site_occupancy
  Zr  Zr0  1  0.00000000  0.50000000  0.10766000  1
  Zr  Zr1  1  0.00000000  0.50000000  0.89234000  1
  Zr  Zr2  1  0.50000000  0.89234000  0.50000000  1
  Zr  Zr3  1  0.50000000  0.10766000  0.50000000  1
  Zr  Zr4  1  0.09277000  0.42444000  0.00000000  1
  Zr  Zr5  1  0.09277000  0.57556000  0.00000000  1
  Zr  Zr6  1  0.59277000  1.00000000  0.42444000  1
  Zr  Zr7  1  0.59277000  0.00000000  0.57556000  1
  Zr  Zr8  1  0.90723000  0.57556000  0.00000000  1
  Zr  Zr9  1  0.90723000  0.42444000  0.00000000  1
  Zr  Zr10  1  0.40723000  1.00000000  0.42444000  1
  Zr  Zr11  1  0.40723000  0.00000000  0.57556000  1
  H  H12  1  0.10060000  0.39520000  0.25040000  1
  H  H13  1  0.22820000  0.33110000  0.12570000  1
  H  H14  1  0.32350000  0.57410000  0.95330000  1
  H  H15  1  0.44860000  0.42550000  0.04640000  1
  H  H16  1  0.15390000  0.33470000  0.31740000  1
  H  H17  1  0.10060000  0.60480000  0.74960000  1
  H  H18  1  0.22820000  0.66890000  0.87430000  1
  H  H19  1  0.32350000  0.42590000  0.04670000  1
  H  H20  1  0.28100000  0.72550000  0.80520000  1
  H  H21  1  0.60060000  0.74960000  0.39520000  1
  H  H22  1  0.72820000  0.87430000  0.33110000  1
  H  H23  1  0.82350000  0.04670000  0.57410000  1
  H  H24  1  0.78100000  0.80520000  0.27450000  1
  H  H25  1  0.94860000  0.95360000  0.42550000  1
  H  H26  1  0.60060000  0.25040000  0.60480000  1
  H  H27  1  0.72820000  0.12570000  0.66890000  1
  H  H28  1  0.82350000  0.95330000  0.42590000  1
  H  H29  1  0.78100000  0.19480000  0.72550000  1
  H  H30  1  0.89940000  0.60480000  0.25040000  1
  H  H31  1  0.77180000  0.66890000  0.12570000  1
  H  H32  1  0.84610000  0.66530000  0.31740000  1
  H  H33  1  0.89940000  0.39520000  0.74960000  1
  H  H34  1  0.77180000  0.33110000  0.87430000  1
  H  H35  1  0.04270000  0.05230000  0.86930000  1
  H  H36  1  0.84610000  0.33470000  0.68260000  1
  H  H37  1  0.39940000  0.25040000  0.39520000  1
  H  H38  1  0.27180000  0.12570000  0.33110000  1
  H  H39  1  0.21900000  0.19480000  0.27450000  1
  H  H40  1  0.39940000  0.74960000  0.60480000  1
  H  H41  1  0.27180000  0.87430000  0.66890000  1
  H  H42  1  0.54270000  0.86930000  0.94770000  1
  H  H43  1  0.34610000  0.68260000  0.66530000  1
  H  H44  1  0.89940000  0.60480000  0.74960000  1
  H  H45  1  0.77180000  0.66890000  0.87430000  1
  H  H46  1  0.67650000  0.42590000  0.04670000  1
  H  H47  1  0.71900000  0.72550000  0.80520000  1
  H  H48  1  0.89940000  0.39520000  0.25040000  1
  H  H49  1  0.77180000  0.33110000  0.12570000  1
  H  H50  1  0.67650000  0.57410000  0.95330000  1
  H  H51  1  0.71900000  0.27450000  0.19480000  1
  H  H52  1  0.55140000  0.42550000  0.04640000  1
  H  H53  1  0.39940000  0.25040000  0.60480000  1
  H  H54  1  0.27180000  0.12570000  0.66890000  1
  H  H55  1  0.17650000  0.95330000  0.42590000  1
  H  H56  1  0.21900000  0.19480000  0.72550000  1
  H  H57  1  0.39940000  0.74960000  0.39520000  1
  H  H58  1  0.27180000  0.87430000  0.33110000  1
  H  H59  1  0.17650000  0.04670000  0.57410000  1
  H  H60  1  0.21900000  0.80520000  0.27450000  1
  H  H61  1  0.05140000  0.95360000  0.42550000  1
  H  H62  1  0.10060000  0.39520000  0.74960000  1
  H  H63  1  0.22820000  0.33110000  0.87430000  1
  H  H64  1  0.95730000  0.05230000  0.86930000  1
  H  H65  1  0.15390000  0.33470000  0.68260000  1
  H  H66  1  0.10060000  0.60480000  0.25040000  1
  H  H67  1  0.22820000  0.66890000  0.12570000  1
  H  H68  1  0.15390000  0.66530000  0.31740000  1
  H  H69  1  0.60060000  0.74960000  0.60480000  1
  H  H70  1  0.72820000  0.87430000  0.66890000  1
  H  H71  1  0.45730000  0.86930000  0.94770000  1
  H  H72  1  0.65390000  0.68260000  0.66530000  1
  H  H73  1  0.60060000  0.25040000  0.39520000  1
  H  H74  1  0.72820000  0.12570000  0.33110000  1
  H  H75  1  0.65390000  0.31740000  0.33470000  1
  H  H76  1  0.10800000  0.23550000  0.00000000  1
  H  H77  1  0.10820000  0.13420000  0.00000000  1
  H  H78  1  0.10800000  0.76450000  0.00000000  1
  H  H79  1  0.10820000  0.86580000  0.00000000  1
  H  H80  1  0.60800000  0.00000000  0.23550000  1
  H  H81  1  0.60820000  0.00000000  0.13420000  1
  H  H82  1  0.60800000  0.00000000  0.76450000  1
  H  H83  1  0.60820000  0.00000000  0.86580000  1
  H  H84  1  0.89200000  0.76450000  0.00000000  1
  H  H85  1  0.89180000  0.86580000  0.00000000  1
  H  H86  1  0.89200000  0.23550000  0.00000000  1
  H  H87  1  0.89180000  0.13420000  0.00000000  1
  H  H88  1  0.39200000  0.00000000  0.23550000  1
  H  H89  1  0.39180000  0.00000000  0.13420000  1
  H  H90  1  0.39200000  0.00000000  0.76450000  1
  H  H91  1  0.39180000  0.00000000  0.86580000  1
  H  H92  1  0.00000000  0.05060000  0.08780000  1
  H  H93  1  0.00000000  0.94940000  0.91220000  1
  H  H94  1  0.50000000  0.91220000  0.05060000  1
  H  H95  1  0.50000000  0.08780000  0.94940000  1
  H  H96  1  0.00000000  0.94940000  0.08780000  1
  H  H97  1  0.00000000  0.10430000  0.89920000  1
  H  H98  1  0.50000000  0.08780000  0.05060000  1
  H  H99  1  0.50000000  0.89920000  0.89570000  1
  Pd  Pd100  1  0.50000000  0.59380000  0.94040000  1
  Pd  Pd101  1  0.00000000  0.05960000  0.59380000  1
  C  C102  1  0.22150000  0.29770000  0.26290000  1
  C  C103  1  0.16940000  0.33380000  0.27820000  1
  C  C104  1  0.13740000  0.36980000  0.23830000  1
  C  C105  1  0.15810000  0.36940000  0.18070000  1
  C  C106  1  0.21230000  0.33280000  0.16470000  1
  C  C107  1  0.24270000  0.29890000  0.20600000  1
  C  C108  1  0.11730000  0.40240000  0.13690000  1
  C  C109  1  0.34880000  0.54400000  0.97220000  1
  C  C110  1  0.42320000  0.45570000  0.02760000  1
  C  C111  1  0.29910000  0.25630000  0.19000000  1
  C  C112  1  0.22150000  0.70230000  0.73710000  1
  C  C113  1  0.16940000  0.66620000  0.72180000  1
  C  C114  1  0.13740000  0.63020000  0.76170000  1
  C  C115  1  0.15810000  0.63060000  0.81930000  1
  C  C116  1  0.21230000  0.66720000  0.83530000  1
  C  C117  1  0.24270000  0.70110000  0.79400000  1
  C  C118  1  0.11730000  0.59760000  0.86310000  1
  C  C119  1  0.34880000  0.45600000  0.02780000  1
  C  C120  1  0.14410000  0.66480000  0.66030000  1
  C  C121  1  0.72150000  0.73710000  0.29770000  1
  C  C122  1  0.66940000  0.72180000  0.33380000  1
  C  C123  1  0.63740000  0.76170000  0.36980000  1
  C  C124  1  0.65810000  0.81930000  0.36940000  1
  C  C125  1  0.71230000  0.83530000  0.33280000  1
  C  C126  1  0.74270000  0.79400000  0.29890000  1
  C  C127  1  0.61730000  0.86310000  0.40240000  1
  C  C128  1  0.84880000  0.02780000  0.54400000  1
  C  C129  1  0.92320000  0.97240000  0.45570000  1
  C  C130  1  0.64410000  0.66030000  0.33520000  1
  C  C131  1  0.72150000  0.26290000  0.70230000  1
  C  C132  1  0.66940000  0.27820000  0.66620000  1
  C  C133  1  0.63740000  0.23830000  0.63020000  1
  C  C134  1  0.65810000  0.18070000  0.63060000  1
  C  C135  1  0.71230000  0.16470000  0.66720000  1
  C  C136  1  0.74270000  0.20600000  0.70110000  1
  C  C137  1  0.61730000  0.13690000  0.59760000  1
  C  C138  1  0.84880000  0.97220000  0.45600000  1
  C  C139  1  0.64410000  0.33970000  0.66480000  1
  C  C140  1  0.77850000  0.70230000  0.26290000  1
  C  C141  1  0.83060000  0.66620000  0.27820000  1
  C  C142  1  0.86260000  0.63020000  0.23830000  1
  C  C143  1  0.84190000  0.63060000  0.18070000  1
  C  C144  1  0.78770000  0.66720000  0.16470000  1
  C  C145  1  0.75730000  0.70110000  0.20600000  1
  C  C146  1  0.88270000  0.59760000  0.13690000  1
  C  C147  1  0.70090000  0.74370000  0.19000000  1
  C  C148  1  0.77850000  0.29770000  0.73710000  1
  C  C149  1  0.83060000  0.33380000  0.72180000  1
  C  C150  1  0.86260000  0.36980000  0.76170000  1
  C  C151  1  0.84190000  0.36940000  0.81930000  1
  C  C152  1  0.78770000  0.33280000  0.83530000  1
  C  C153  1  0.75730000  0.29890000  0.79400000  1
  C  C154  1  0.88270000  0.40240000  0.86310000  1
  C  C155  1  0.70090000  0.25630000  0.81000000  1
  C  C156  1  0.27850000  0.26290000  0.29770000  1
  C  C157  1  0.33060000  0.27820000  0.33380000  1
  C  C158  1  0.36260000  0.23830000  0.36980000  1
  C  C159  1  0.34190000  0.18070000  0.36940000  1
  C  C160  1  0.28770000  0.16470000  0.33280000  1
  C  C161  1  0.25730000  0.20600000  0.29890000  1
  C  C162  1  0.38270000  0.13690000  0.40240000  1
  C  C163  1  0.35590000  0.33970000  0.33520000  1
  C  C164  1  0.27850000  0.73710000  0.70230000  1
  C  C165  1  0.33060000  0.72180000  0.66620000  1
  C  C166  1  0.36260000  0.76170000  0.63020000  1
  C  C167  1  0.34190000  0.81930000  0.63060000  1
  C  C168  1  0.28770000  0.83530000  0.66720000  1
  C  C169  1  0.25730000  0.79400000  0.70110000  1
  C  C170  1  0.38270000  0.86310000  0.59760000  1
  C  C171  1  0.20090000  0.81000000  0.74370000  1
  C  C172  1  0.77850000  0.70230000  0.73710000  1
  C  C173  1  0.83060000  0.66620000  0.72180000  1
  C  C174  1  0.86260000  0.63020000  0.76170000  1
  C  C175  1  0.84190000  0.63060000  0.81930000  1
  C  C176  1  0.78770000  0.66720000  0.83530000  1
  C  C177  1  0.75730000  0.70110000  0.79400000  1
  C  C178  1  0.88270000  0.59760000  0.86310000  1
  C  C179  1  0.65120000  0.45600000  0.02780000  1
  C  C180  1  0.85590000  0.66480000  0.66030000  1
  C  C181  1  0.77850000  0.29770000  0.26290000  1
  C  C182  1  0.83060000  0.33380000  0.27820000  1
  C  C183  1  0.86260000  0.36980000  0.23830000  1
  C  C184  1  0.84190000  0.36940000  0.18070000  1
  C  C185  1  0.78770000  0.33280000  0.16470000  1
  C  C186  1  0.75730000  0.29890000  0.20600000  1
  C  C187  1  0.88270000  0.40240000  0.13690000  1
  C  C188  1  0.65120000  0.54400000  0.97220000  1
  C  C189  1  0.57680000  0.45570000  0.02760000  1
  C  C190  1  0.85590000  0.33520000  0.33970000  1
  C  C191  1  0.27850000  0.26290000  0.70230000  1
  C  C192  1  0.33060000  0.27820000  0.66620000  1
  C  C193  1  0.36260000  0.23830000  0.63020000  1
  C  C194  1  0.34190000  0.18070000  0.63060000  1
  C  C195  1  0.28770000  0.16470000  0.66720000  1
  C  C196  1  0.25730000  0.20600000  0.70110000  1
  C  C197  1  0.38270000  0.13690000  0.59760000  1
  C  C198  1  0.15120000  0.97220000  0.45600000  1
  C  C199  1  0.35590000  0.33970000  0.66480000  1
  C  C200  1  0.27850000  0.73710000  0.29770000  1
  C  C201  1  0.33060000  0.72180000  0.33380000  1
  C  C202  1  0.36260000  0.76170000  0.36980000  1
  C  C203  1  0.34190000  0.81930000  0.36940000  1
  C  C204  1  0.28770000  0.83530000  0.33280000  1
  C  C205  1  0.25730000  0.79400000  0.29890000  1
  C  C206  1  0.38270000  0.86310000  0.40240000  1
  C  C207  1  0.15120000  0.02780000  0.54400000  1
  C  C208  1  0.07680000  0.97240000  0.45570000  1
  C  C209  1  0.35590000  0.66030000  0.33520000  1
  C  C210  1  0.22150000  0.29770000  0.73710000  1
  C  C211  1  0.16940000  0.33380000  0.72180000  1
  C  C212  1  0.13740000  0.36980000  0.76170000  1
  C  C213  1  0.15810000  0.36940000  0.81930000  1
  C  C214  1  0.21230000  0.33280000  0.83530000  1
  C  C215  1  0.24270000  0.29890000  0.79400000  1
  C  C216  1  0.11730000  0.40240000  0.86310000  1
  C  C217  1  0.29910000  0.25630000  0.81000000  1
  C  C218  1  0.22150000  0.70230000  0.26290000  1
  C  C219  1  0.16940000  0.66620000  0.27820000  1
  C  C220  1  0.13740000  0.63020000  0.23830000  1
  C  C221  1  0.15810000  0.63060000  0.18070000  1
  C  C222  1  0.21230000  0.66720000  0.16470000  1
  C  C223  1  0.24270000  0.70110000  0.20600000  1
  C  C224  1  0.11730000  0.59760000  0.13690000  1
  C  C225  1  0.29910000  0.74370000  0.19000000  1
  C  C226  1  0.72150000  0.73710000  0.70230000  1
  C  C227  1  0.66940000  0.72180000  0.66620000  1
  C  C228  1  0.63740000  0.76170000  0.63020000  1
  C  C229  1  0.65810000  0.81930000  0.63060000  1
  C  C230  1  0.71230000  0.83530000  0.66720000  1
  C  C231  1  0.74270000  0.79400000  0.70110000  1
  C  C232  1  0.61730000  0.86310000  0.59760000  1
  C  C233  1  0.79910000  0.81000000  0.74370000  1
  C  C234  1  0.72150000  0.26290000  0.29770000  1
  C  C235  1  0.66940000  0.27820000  0.33380000  1
  C  C236  1  0.63740000  0.23830000  0.36980000  1
  C  C237  1  0.65810000  0.18070000  0.36940000  1
  C  C238  1  0.71230000  0.16470000  0.33280000  1
  C  C239  1  0.74270000  0.20600000  0.29890000  1
  C  C240  1  0.61730000  0.13690000  0.40240000  1
  C  C241  1  0.79910000  0.19000000  0.25630000  1
  C  C242  1  0.06420000  0.21490000  0.00000000  1
  C  C243  1  0.06430000  0.15470000  0.00000000  1
  C  C244  1  0.06420000  0.78510000  0.00000000  1
  C  C245  1  0.06430000  0.84530000  0.00000000  1
  C  C246  1  0.56420000  1.00000000  0.21490000  1
  C  C247  1  0.56430000  0.00000000  0.15470000  1
  C  C248  1  0.56420000  0.00000000  0.78510000  1
  C  C249  1  0.56430000  0.00000000  0.84530000  1
  C  C250  1  0.93580000  0.78510000  0.00000000  1
  C  C251  1  0.93570000  0.84530000  0.00000000  1
  C  C252  1  0.93580000  0.21490000  0.00000000  1
  C  C253  1  0.93570000  0.15470000  0.00000000  1
  C  C254  1  0.43580000  1.00000000  0.21490000  1
  C  C255  1  0.43570000  0.00000000  0.15470000  1
  C  C256  1  0.43580000  0.00000000  0.78510000  1
  C  C257  1  0.43570000  0.00000000  0.84530000  1
  C  C258  1  0.00000000  0.03004000  0.05216000  1
  C  C259  1  0.00000000  0.96996000  0.94784000  1
  C  C260  1  0.50000000  0.94784000  0.03004000  1
  C  C261  1  0.50000000  0.05216000  0.96996000  1
  C  C262  1  0.00000000  0.96996000  0.05216000  1
  C  C263  1  0.00000000  0.03004000  0.94784000  1
  C  C264  1  0.00000000  0.06260000  0.89150000  1
  C  C265  1  0.50000000  0.05216000  0.03004000  1
  C  C266  1  0.50000000  0.94784000  0.96996000  1
  C  C267  1  0.50000000  0.89150000  0.93740000  1
  C  C268  1  0.23320000  0.50000000  0.00000000  1
  C  C269  1  0.31210000  0.50000000  0.00000000  1
  C  C270  1  0.46010000  0.50000000  0.00000000  1
  C  C271  1  0.73320000  0.00000000  0.50000000  1
  C  C272  1  0.81210000  0.00000000  0.50000000  1
  C  C273  1  0.96010000  0.00000000  0.50000000  1
  C  C274  1  0.76680000  0.50000000  0.00000000  1
  C  C275  1  0.68790000  0.50000000  0.00000000  1
  C  C276  1  0.53990000  0.50000000  0.00000000  1
  C  C277  1  0.26680000  0.00000000  0.50000000  1
  C  C278  1  0.18790000  0.00000000  0.50000000  1
  C  C279  1  0.03990000  0.00000000  0.50000000  1
  C  C280  1  0.00000000  0.30920000  0.00000000  1
  C  C281  1  0.00000000  0.24470000  0.00000000  1
  C  C282  1  0.00000000  0.12460000  0.00000000  1
  C  C283  1  0.00000000  0.06027000  0.00000000  1
  C  C284  1  0.00000000  0.69080000  0.00000000  1
  C  C285  1  0.00000000  0.75530000  0.00000000  1
  C  C286  1  0.00000000  0.87540000  0.00000000  1
  C  C287  1  0.00000000  0.93973000  0.00000000  1
  C  C288  1  0.50000000  0.00000000  0.30920000  1
  C  C289  1  0.50000000  0.00000000  0.24470000  1
  C  C290  1  0.50000000  0.00000000  0.12460000  1
  C  C291  1  0.50000000  0.00000000  0.06027000  1
  C  C292  1  0.50000000  0.00000000  0.69080000  1
  C  C293  1  0.50000000  1.00000000  0.75530000  1
  C  C294  1  0.50000000  0.00000000  0.87540000  1
  C  C295  1  0.50000000  0.00000000  0.93973000  1
  N  N296  1  0.42270000  0.54370000  0.97230000  1
  N  N297  1  0.92270000  0.02770000  0.54370000  1
  N  N298  1  0.57730000  0.54370000  0.97230000  1
  N  N299  1  0.07730000  0.02770000  0.54370000  1
  Cl  Cl300  1  0.41330000  0.65380000  0.90270000  1
  Cl  Cl301  1  0.91330000  0.09730000  0.65380000  1
  Cl  Cl302  1  0.58670000  0.65380000  0.90270000  1
  Cl  Cl303  1  0.08670000  0.09730000  0.65380000  1
  O  O304  1  0.13540000  0.39010000  0.08340000  1
  O  O305  1  0.07210000  0.44100000  0.15650000  1
  O  O306  1  0.13540000  0.60990000  0.91660000  1
  O  O307  1  0.07210000  0.55900000  0.84350000  1
  O  O308  1  0.63540000  0.91660000  0.39010000  1
  O  O309  1  0.57210000  0.84350000  0.44100000  1
  O  O310  1  0.63540000  0.08340000  0.60990000  1
  O  O311  1  0.57210000  0.15650000  0.55900000  1
  O  O312  1  0.86460000  0.60990000  0.08340000  1
  O  O313  1  0.92790000  0.55900000  0.15650000  1
  O  O314  1  0.86460000  0.39010000  0.91660000  1
  O  O315  1  0.92790000  0.44100000  0.84350000  1
  O  O316  1  0.36460000  0.08340000  0.39010000  1
  O  O317  1  0.42790000  0.15650000  0.44100000  1
  O  O318  1  0.36460000  0.91660000  0.60990000  1
  O  O319  1  0.42790000  0.84350000  0.55900000  1
  O  O320  1  0.86460000  0.60990000  0.91660000  1
  O  O321  1  0.92790000  0.55900000  0.84350000  1
  O  O322  1  0.86460000  0.39010000  0.08340000  1
  O  O323  1  0.92790000  0.44100000  0.15650000  1
  O  O324  1  0.36460000  0.08340000  0.60990000  1
  O  O325  1  0.42790000  0.15650000  0.55900000  1
  O  O326  1  0.36460000  0.91660000  0.39010000  1
  O  O327  1  0.42790000  0.84350000  0.44100000  1
  O  O328  1  0.13540000  0.39010000  0.91660000  1
  O  O329  1  0.07210000  0.44100000  0.84350000  1
  O  O330  1  0.13540000  0.60990000  0.08340000  1
  O  O331  1  0.07210000  0.55900000  0.15650000  1
  O  O332  1  0.63540000  0.91660000  0.60990000  1
  O  O333  1  0.57210000  0.84350000  0.55900000  1
  O  O334  1  0.63540000  0.08340000  0.39010000  1
  O  O335  1  0.57210000  0.15650000  0.44100000  1
  O  O336  1  0.20790000  0.44610000  0.00000000  1
  O  O337  1  0.06130000  0.33280000  0.00000000  1
  O  O338  1  0.20790000  0.55390000  0.00000000  1
  O  O339  1  0.06130000  0.66720000  0.00000000  1
  O  O340  1  0.70790000  1.00000000  0.44610000  1
  O  O341  1  0.56130000  1.00000000  0.33280000  1
  O  O342  1  0.70790000  0.00000000  0.55390000  1
  O  O343  1  0.56130000  1.00000000  0.66720000  1
  O  O344  1  0.79210000  0.55390000  0.00000000  1
  O  O345  1  0.93870000  0.66720000  0.00000000  1
  O  O346  1  0.79210000  0.44610000  0.00000000  1
  O  O347  1  0.93870000  0.33280000  0.00000000  1
  O  O348  1  0.29210000  1.00000000  0.44610000  1
  O  O349  1  0.43870000  1.00000000  0.33280000  1
  O  O350  1  0.29210000  0.00000000  0.55390000  1
  O  O351  1  0.43870000  1.00000000  0.66720000  1
  O  O352  1  0.09080000  0.50000000  0.05260000  1
  O  O353  1  0.09080000  0.50000000  0.94740000  1
  O  O354  1  0.59080000  0.94740000  0.50000000  1
  O  O355  1  0.59080000  0.05260000  0.50000000  1
  O  O356  1  0.90920000  0.50000000  0.05260000  1
  O  O357  1  0.90920000  0.50000000  0.94740000  1
  O  O358  1  0.40920000  0.05260000  0.50000000  1
  O  O359  1  0.40920000  0.94740000  0.50000000  1
  O  O360  1  0.00000000  0.42550000  0.05380000  1
  O  O361  1  0.00000000  0.57450000  0.94620000  1
  O  O362  1  0.50000000  0.94620000  0.42550000  1
  O  O363  1  0.50000000  0.05380000  0.57450000  1
  O  O364  1  0.00000000  0.57450000  0.05380000  1
  O  O365  1  0.00000000  0.42550000  0.94620000  1
  O  O366  1  0.50000000  0.05380000  0.42550000  1
  O  O367  1  0.50000000  0.94620000  0.57450000  1
  F  F368  1  0.35910000  0.25340000  0.23130000  1
  F  F369  1  0.31820000  0.26270000  0.12740000  1
  F  F370  1  0.10810000  0.72570000  0.65180000  1
  F  F371  1  0.20430000  0.65660000  0.61870000  1
  F  F372  1  0.08790000  0.61900000  0.65100000  1
  F  F373  1  0.60810000  0.65180000  0.27430000  1
  F  F374  1  0.70430000  0.61870000  0.34340000  1
  F  F375  1  0.58790000  0.65100000  0.38100000  1
  F  F376  1  0.60810000  0.34820000  0.72570000  1
  F  F377  1  0.70430000  0.38130000  0.65660000  1
  F  F378  1  0.58790000  0.34900000  0.61900000  1
  F  F379  1  0.64090000  0.74660000  0.23130000  1
  F  F380  1  0.68180000  0.73730000  0.12740000  1
  F  F381  1  0.64090000  0.25340000  0.76870000  1
  F  F382  1  0.68180000  0.26270000  0.87260000  1
  F  F383  1  0.39190000  0.34820000  0.27430000  1
  F  F384  1  0.29570000  0.38130000  0.34340000  1
  F  F385  1  0.41210000  0.34900000  0.38100000  1
  F  F386  1  0.14090000  0.76870000  0.74660000  1
  F  F387  1  0.18180000  0.87260000  0.73730000  1
  F  F388  1  0.89190000  0.72570000  0.65180000  1
  F  F389  1  0.79570000  0.65660000  0.61870000  1
  F  F390  1  0.91210000  0.61900000  0.65100000  1
  F  F391  1  0.89190000  0.27430000  0.34820000  1
  F  F392  1  0.79570000  0.34340000  0.38130000  1
  F  F393  1  0.91210000  0.38100000  0.34900000  1
  F  F394  1  0.39190000  0.34820000  0.72570000  1
  F  F395  1  0.29570000  0.38130000  0.65660000  1
  F  F396  1  0.41210000  0.34900000  0.61900000  1
  F  F397  1  0.39190000  0.65180000  0.27430000  1
  F  F398  1  0.29570000  0.61870000  0.34340000  1
  F  F399  1  0.41210000  0.65100000  0.38100000  1
  F  F400  1  0.35910000  0.25340000  0.76870000  1
  F  F401  1  0.31820000  0.26270000  0.87260000  1
  F  F402  1  0.35910000  0.74660000  0.23130000  1
  F  F403  1  0.31820000  0.73730000  0.12740000  1
  F  F404  1  0.85910000  0.76870000  0.74660000  1
  F  F405  1  0.81820000  0.87260000  0.73730000  1
  F  F406  1  0.85910000  0.23130000  0.25340000  1
  F  F407  1  0.81820000  0.12740000  0.26270000  1
  F  F408  1  0.25000000  0.19720000  0.19720000  1
  F  F409  1  0.25000000  0.80280000  0.80280000  1
  F  F410  1  0.75000000  0.80280000  0.19720000  1
  F  F411  1  0.75000000  0.19720000  0.80280000  1
  F  F412  1  0.75000000  0.80280000  0.80280000  1
  F  F413  1  0.75000000  0.19720000  0.19720000  1
  F  F414  1  0.25000000  0.19720000  0.80280000  1
  F  F415  1  0.25000000  0.80280000  0.19720000  1
