# generated using pymatgen
data_Zr12H97C200(O4F3)16
_symmetry_space_group_name_H-M   'P 1'
_cell_length_a   18.90240000
_cell_length_b   23.01350000
_cell_length_c   23.01350000
_cell_angle_alpha   90.00000000
_cell_angle_beta   90.00000000
_cell_angle_gamma   90.00000000
_symmetry_Int_Tables_number   1
_chemical_formula_structural   Zr12H97C200(O4F3)16
_chemical_formula_sum   'Zr12 H97 C200 O64 F48'
_cell_volume   10011.11143536
_cell_formula_units_Z   1
loop_
 _symmetry_equiv_pos_site_id
 _symmetry_equiv_pos_as_xyz
  1  'x, y, z'
loop_
 _atom_site_type_symbol
 _atom_site_label
 _atom_site_symmetry_multiplicity
 _atom_site_fract_x
 _atom_site_fract_y
 _atom_site_fract_z
 _atom_site_occupancy
  Zr  Zr0  1  0.09239000  0.00000000  0.42398000  1
  Zr  Zr1  1  0.09239000  0.00000000  0.57602000  1
  Zr  Zr2  1  0.59239000  0.57602000  0.00000000  1
  Zr  Zr3  1  0.59239000  0.42398000  0.00000000  1
  Zr  Zr4  1  0.90761000  0.00000000  0.42398000  1
  Zr  Zr5  1  0.90761000  0.00000000  0.57602000  1
  Zr  Zr6  1  0.40761000  0.42398000  0.00000000  1
  Zr  Zr7  1  0.40761000  0.57602000  0.00000000  1
  Zr  Zr8  1  0.00000000  0.10751000  0.50000000  1
  Zr  Zr9  1  0.00000000  0.89249000  0.50000000  1
  Zr  Zr10  1  0.50000000  0.50000000  0.10751000  1
  Zr  Zr11  1  0.50000000  0.50000000  0.89249000  1
  H  H12  1  0.09890000  0.25200000  0.39480000  1
  H  H13  1  0.22720000  0.12590000  0.33590000  1
  H  H14  1  0.15910000  0.32070000  0.33720000  1
  H  H15  1  0.09890000  0.74800000  0.60520000  1
  H  H16  1  0.22720000  0.87410000  0.66410000  1
  H  H17  1  0.15910000  0.67930000  0.66280000  1
  H  H18  1  0.59890000  0.60520000  0.25200000  1
  H  H19  1  0.72720000  0.66410000  0.12590000  1
  H  H20  1  0.82420000  0.41380000  0.01880000  1
  H  H21  1  0.54230000  0.94800000  0.13140000  1
  H  H22  1  0.65910000  0.66280000  0.32070000  1
  H  H23  1  0.94810000  0.41380000  0.01880000  1
  H  H24  1  0.59890000  0.39480000  0.74800000  1
  H  H25  1  0.72720000  0.33590000  0.87410000  1
  H  H26  1  0.78750000  0.27950000  0.80790000  1
  H  H27  1  0.82420000  0.58620000  0.98120000  1
  H  H28  1  0.01320000  0.59930000  0.97840000  1
  H  H29  1  0.94940000  0.62090000  0.93810000  1
  H  H30  1  0.94940000  0.63570000  0.00600000  1
  H  H31  1  0.90110000  0.74800000  0.39480000  1
  H  H32  1  0.77280000  0.87410000  0.33590000  1
  H  H33  1  0.71250000  0.80790000  0.27950000  1
  H  H34  1  0.90110000  0.25200000  0.60520000  1
  H  H35  1  0.77280000  0.12590000  0.66410000  1
  H  H36  1  0.95770000  0.13140000  0.94800000  1
  H  H37  1  0.84090000  0.32070000  0.66280000  1
  H  H38  1  0.40110000  0.39480000  0.25200000  1
  H  H39  1  0.27280000  0.33590000  0.12590000  1
  H  H40  1  0.21250000  0.27950000  0.19210000  1
  H  H41  1  0.17580000  0.58620000  0.01880000  1
  H  H42  1  0.05190000  0.58620000  0.01880000  1
  H  H43  1  0.40110000  0.60520000  0.74800000  1
  H  H44  1  0.27280000  0.66410000  0.87410000  1
  H  H45  1  0.21250000  0.72050000  0.80790000  1
  H  H46  1  0.17580000  0.41380000  0.98120000  1
  H  H47  1  0.05190000  0.41380000  0.98120000  1
  H  H48  1  0.90110000  0.74800000  0.60520000  1
  H  H49  1  0.77280000  0.87410000  0.66410000  1
  H  H50  1  0.71250000  0.80790000  0.72050000  1
  H  H51  1  0.67580000  0.98120000  0.41380000  1
  H  H52  1  0.55190000  0.98120000  0.41380000  1
  H  H53  1  0.90110000  0.25200000  0.39480000  1
  H  H54  1  0.77280000  0.12590000  0.33590000  1
  H  H55  1  0.67580000  0.01880000  0.58620000  1
  H  H56  1  0.84090000  0.32070000  0.33720000  1
  H  H57  1  0.48680000  0.02160000  0.59930000  1
  H  H58  1  0.55060000  0.06190000  0.62090000  1
  H  H59  1  0.55060000  0.99400000  0.63570000  1
  H  H60  1  0.40110000  0.39480000  0.74800000  1
  H  H61  1  0.27280000  0.33590000  0.87410000  1
  H  H62  1  0.34090000  0.33720000  0.67930000  1
  H  H63  1  0.40110000  0.60520000  0.25200000  1
  H  H64  1  0.27280000  0.66410000  0.12590000  1
  H  H65  1  0.21250000  0.72050000  0.19210000  1
  H  H66  1  0.45770000  0.94800000  0.13140000  1
  H  H67  1  0.09890000  0.25200000  0.60520000  1
  H  H68  1  0.22720000  0.12590000  0.66410000  1
  H  H69  1  0.28750000  0.19210000  0.72050000  1
  H  H70  1  0.32420000  0.01880000  0.41380000  1
  H  H71  1  0.04230000  0.13140000  0.94800000  1
  H  H72  1  0.44810000  0.01880000  0.41380000  1
  H  H73  1  0.09890000  0.74800000  0.39480000  1
  H  H74  1  0.22720000  0.87410000  0.33590000  1
  H  H75  1  0.32420000  0.98120000  0.58620000  1
  H  H76  1  0.15910000  0.67930000  0.33720000  1
  H  H77  1  0.44810000  0.98120000  0.58620000  1
  H  H78  1  0.59890000  0.60520000  0.74800000  1
  H  H79  1  0.72720000  0.66410000  0.87410000  1
  H  H80  1  0.65910000  0.66280000  0.67930000  1
  H  H81  1  0.59890000  0.39480000  0.25200000  1
  H  H82  1  0.72720000  0.33590000  0.12590000  1
  H  H83  1  0.78750000  0.27950000  0.19210000  1
  H  H84  1  0.01320000  0.59930000  0.02160000  1
  H  H85  1  0.10730000  0.00000000  0.23850000  1
  H  H86  1  0.10730000  0.00000000  0.13640000  1
  H  H87  1  0.10730000  0.00000000  0.76150000  1
  H  H88  1  0.10730000  0.00000000  0.86360000  1
  H  H89  1  0.60730000  0.76150000  0.00000000  1
  H  H90  1  0.60730000  0.86360000  0.00000000  1
  H  H91  1  0.60730000  0.23850000  0.00000000  1
  H  H92  1  0.60730000  0.13640000  0.00000000  1
  H  H93  1  0.89270000  0.00000000  0.23850000  1
  H  H94  1  0.89270000  0.00000000  0.13640000  1
  H  H95  1  0.89270000  0.00000000  0.76150000  1
  H  H96  1  0.89270000  0.00000000  0.86360000  1
  H  H97  1  0.39270000  0.23850000  0.00000000  1
  H  H98  1  0.39270000  0.13640000  0.00000000  1
  H  H99  1  0.39270000  0.76150000  0.00000000  1
  H  H100  1  0.39270000  0.86360000  0.00000000  1
  H  H101  1  0.00000000  0.08820000  0.05080000  1
  H  H102  1  0.00000000  0.91180000  0.94920000  1
  H  H103  1  0.50000000  0.89560000  0.10170000  1
  H  H104  1  0.50000000  0.05080000  0.91180000  1
  H  H105  1  0.00000000  0.91180000  0.05080000  1
  H  H106  1  0.00000000  0.10170000  0.89560000  1
  H  H107  1  0.50000000  0.05080000  0.08820000  1
  H  H108  1  0.50000000  0.94920000  0.91180000  1
  C  C109  1  0.22970000  0.26230000  0.30250000  1
  C  C110  1  0.17300000  0.28110000  0.33690000  1
  C  C111  1  0.13730000  0.23970000  0.37120000  1
  C  C112  1  0.15620000  0.18310000  0.37130000  1
  C  C113  1  0.21330000  0.16560000  0.33620000  1
  C  C114  1  0.24900000  0.20470000  0.30280000  1
  C  C115  1  0.11620000  0.13920000  0.40440000  1
  C  C116  1  0.30870000  0.18000000  0.26770000  1
  C  C117  1  0.22970000  0.73770000  0.69750000  1
  C  C118  1  0.17300000  0.71890000  0.66310000  1
  C  C119  1  0.13730000  0.76030000  0.62880000  1
  C  C120  1  0.15620000  0.81690000  0.62870000  1
  C  C121  1  0.21330000  0.83440000  0.66380000  1
  C  C122  1  0.24900000  0.79530000  0.69720000  1
  C  C123  1  0.11620000  0.86080000  0.59560000  1
  C  C124  1  0.30870000  0.82000000  0.73230000  1
  C  C125  1  0.72970000  0.69750000  0.26230000  1
  C  C126  1  0.67300000  0.66310000  0.28110000  1
  C  C127  1  0.63730000  0.62880000  0.23970000  1
  C  C128  1  0.65620000  0.62870000  0.18310000  1
  C  C129  1  0.71330000  0.66380000  0.16560000  1
  C  C130  1  0.74900000  0.69720000  0.20470000  1
  C  C131  1  0.61620000  0.59560000  0.13920000  1
  C  C132  1  0.84930000  0.44870000  0.01120000  1
  C  C133  1  0.92310000  0.44880000  0.01120000  1
  C  C134  1  0.80870000  0.73230000  0.18000000  1
  C  C135  1  0.72970000  0.30250000  0.73770000  1
  C  C136  1  0.67300000  0.33690000  0.71890000  1
  C  C137  1  0.63730000  0.37120000  0.76030000  1
  C  C138  1  0.65620000  0.37130000  0.81690000  1
  C  C139  1  0.71330000  0.33620000  0.83440000  1
  C  C140  1  0.74900000  0.30280000  0.79530000  1
  C  C141  1  0.61620000  0.40440000  0.86080000  1
  C  C142  1  0.64740000  0.33950000  0.65690000  1
  C  C143  1  0.84930000  0.55130000  0.98880000  1
  C  C144  1  0.92310000  0.55120000  0.98880000  1
  C  C145  1  0.96210000  0.60660000  0.97700000  1
  C  C146  1  0.77030000  0.73770000  0.30250000  1
  C  C147  1  0.82700000  0.71890000  0.33690000  1
  C  C148  1  0.86270000  0.76030000  0.37120000  1
  C  C149  1  0.84380000  0.81690000  0.37130000  1
  C  C150  1  0.78670000  0.83440000  0.33620000  1
  C  C151  1  0.75100000  0.79530000  0.30280000  1
  C  C152  1  0.88380000  0.86080000  0.40440000  1
  C  C153  1  0.85260000  0.65690000  0.33950000  1
  C  C154  1  0.77030000  0.26230000  0.69750000  1
  C  C155  1  0.82700000  0.28110000  0.66310000  1
  C  C156  1  0.86270000  0.23970000  0.62880000  1
  C  C157  1  0.84380000  0.18310000  0.62870000  1
  C  C158  1  0.78670000  0.16560000  0.66380000  1
  C  C159  1  0.75100000  0.20470000  0.69720000  1
  C  C160  1  0.88380000  0.13920000  0.59560000  1
  C  C161  1  0.69130000  0.18000000  0.73230000  1
  C  C162  1  0.27030000  0.30250000  0.26230000  1
  C  C163  1  0.32700000  0.33690000  0.28110000  1
  C  C164  1  0.36270000  0.37120000  0.23970000  1
  C  C165  1  0.34380000  0.37130000  0.18310000  1
  C  C166  1  0.28670000  0.33620000  0.16560000  1
  C  C167  1  0.25100000  0.30280000  0.20470000  1
  C  C168  1  0.38380000  0.40440000  0.13920000  1
  C  C169  1  0.35260000  0.33950000  0.34310000  1
  C  C170  1  0.15070000  0.55130000  0.01120000  1
  C  C171  1  0.07690000  0.55120000  0.01120000  1
  C  C172  1  0.27030000  0.69750000  0.73770000  1
  C  C173  1  0.32700000  0.66310000  0.71890000  1
  C  C174  1  0.36270000  0.62880000  0.76030000  1
  C  C175  1  0.34380000  0.62870000  0.81690000  1
  C  C176  1  0.28670000  0.66380000  0.83440000  1
  C  C177  1  0.25100000  0.69720000  0.79530000  1
  C  C178  1  0.38380000  0.59560000  0.86080000  1
  C  C179  1  0.35260000  0.66050000  0.65690000  1
  C  C180  1  0.15070000  0.44870000  0.98880000  1
  C  C181  1  0.07690000  0.44880000  0.98880000  1
  C  C182  1  0.77030000  0.73770000  0.69750000  1
  C  C183  1  0.82700000  0.71890000  0.66310000  1
  C  C184  1  0.86270000  0.76030000  0.62880000  1
  C  C185  1  0.84380000  0.81690000  0.62870000  1
  C  C186  1  0.78670000  0.83440000  0.66380000  1
  C  C187  1  0.75100000  0.79530000  0.69720000  1
  C  C188  1  0.88380000  0.86080000  0.59560000  1
  C  C189  1  0.85260000  0.65690000  0.66050000  1
  C  C190  1  0.65070000  0.98880000  0.44870000  1
  C  C191  1  0.57690000  0.98880000  0.44880000  1
  C  C192  1  0.77030000  0.26230000  0.30250000  1
  C  C193  1  0.82700000  0.28110000  0.33690000  1
  C  C194  1  0.86270000  0.23970000  0.37120000  1
  C  C195  1  0.84380000  0.18310000  0.37130000  1
  C  C196  1  0.78670000  0.16560000  0.33620000  1
  C  C197  1  0.75100000  0.20470000  0.30280000  1
  C  C198  1  0.88380000  0.13920000  0.40440000  1
  C  C199  1  0.65070000  0.01120000  0.55130000  1
  C  C200  1  0.57690000  0.01120000  0.55120000  1
  C  C201  1  0.53790000  0.02300000  0.60660000  1
  C  C202  1  0.69130000  0.18000000  0.26770000  1
  C  C203  1  0.27030000  0.30250000  0.73770000  1
  C  C204  1  0.32700000  0.33690000  0.71890000  1
  C  C205  1  0.36270000  0.37120000  0.76030000  1
  C  C206  1  0.34380000  0.37130000  0.81690000  1
  C  C207  1  0.28670000  0.33620000  0.83440000  1
  C  C208  1  0.25100000  0.30280000  0.79530000  1
  C  C209  1  0.38380000  0.40440000  0.86080000  1
  C  C210  1  0.19130000  0.26770000  0.82000000  1
  C  C211  1  0.27030000  0.69750000  0.26230000  1
  C  C212  1  0.32700000  0.66310000  0.28110000  1
  C  C213  1  0.36270000  0.62880000  0.23970000  1
  C  C214  1  0.34380000  0.62870000  0.18310000  1
  C  C215  1  0.28670000  0.66380000  0.16560000  1
  C  C216  1  0.25100000  0.69720000  0.20470000  1
  C  C217  1  0.38380000  0.59560000  0.13920000  1
  C  C218  1  0.35260000  0.66050000  0.34310000  1
  C  C219  1  0.22970000  0.26230000  0.69750000  1
  C  C220  1  0.17300000  0.28110000  0.66310000  1
  C  C221  1  0.13730000  0.23970000  0.62880000  1
  C  C222  1  0.15620000  0.18310000  0.62870000  1
  C  C223  1  0.21330000  0.16560000  0.66380000  1
  C  C224  1  0.24900000  0.20470000  0.69720000  1
  C  C225  1  0.11620000  0.13920000  0.59560000  1
  C  C226  1  0.14740000  0.34310000  0.66050000  1
  C  C227  1  0.34930000  0.01120000  0.44870000  1
  C  C228  1  0.42310000  0.01120000  0.44880000  1
  C  C229  1  0.22970000  0.73770000  0.30250000  1
  C  C230  1  0.17300000  0.71890000  0.33690000  1
  C  C231  1  0.13730000  0.76030000  0.37120000  1
  C  C232  1  0.15620000  0.81690000  0.37130000  1
  C  C233  1  0.21330000  0.83440000  0.33620000  1
  C  C234  1  0.24900000  0.79530000  0.30280000  1
  C  C235  1  0.11620000  0.86080000  0.40440000  1
  C  C236  1  0.34930000  0.98880000  0.55130000  1
  C  C237  1  0.42310000  0.98880000  0.55120000  1
  C  C238  1  0.30870000  0.82000000  0.26770000  1
  C  C239  1  0.72970000  0.69750000  0.73770000  1
  C  C240  1  0.67300000  0.66310000  0.71890000  1
  C  C241  1  0.63730000  0.62880000  0.76030000  1
  C  C242  1  0.65620000  0.62870000  0.81690000  1
  C  C243  1  0.71330000  0.66380000  0.83440000  1
  C  C244  1  0.74900000  0.69720000  0.79530000  1
  C  C245  1  0.61620000  0.59560000  0.86080000  1
  C  C246  1  0.80870000  0.73230000  0.82000000  1
  C  C247  1  0.72970000  0.30250000  0.26230000  1
  C  C248  1  0.67300000  0.33690000  0.28110000  1
  C  C249  1  0.63730000  0.37120000  0.23970000  1
  C  C250  1  0.65620000  0.37130000  0.18310000  1
  C  C251  1  0.71330000  0.33620000  0.16560000  1
  C  C252  1  0.74900000  0.30280000  0.20470000  1
  C  C253  1  0.61620000  0.40440000  0.13920000  1
  C  C254  1  0.64740000  0.33950000  0.34310000  1
  C  C255  1  0.06380000  0.00000000  0.21780000  1
  C  C256  1  0.06370000  0.00000000  0.15700000  1
  C  C257  1  0.06380000  0.00000000  0.78220000  1
  C  C258  1  0.06370000  0.00000000  0.84300000  1
  C  C259  1  0.56380000  0.78220000  0.00000000  1
  C  C260  1  0.56370000  0.84300000  0.00000000  1
  C  C261  1  0.56380000  0.21780000  0.00000000  1
  C  C262  1  0.56370000  0.15700000  0.00000000  1
  C  C263  1  0.93620000  0.00000000  0.21780000  1
  C  C264  1  0.93630000  0.00000000  0.15700000  1
  C  C265  1  0.93620000  0.00000000  0.78220000  1
  C  C266  1  0.93630000  0.00000000  0.84300000  1
  C  C267  1  0.43620000  0.21780000  0.00000000  1
  C  C268  1  0.43630000  0.15700000  0.00000000  1
  C  C269  1  0.43620000  0.78220000  0.00000000  1
  C  C270  1  0.43630000  0.84300000  0.00000000  1
  C  C271  1  1.00000000  0.05240000  0.03023000  1
  C  C272  1  1.00000000  0.94760000  0.96977000  1
  C  C273  1  0.50000000  0.96977000  0.05240000  1
  C  C274  1  0.50000000  0.93760000  0.10920000  1
  C  C275  1  0.50000000  0.03023000  0.94760000  1
  C  C276  1  0.00000000  0.94760000  0.03023000  1
  C  C277  1  0.00000000  0.05240000  0.96977000  1
  C  C278  1  0.00000000  0.10920000  0.93760000  1
  C  C279  1  0.50000000  0.03023000  0.05240000  1
  C  C280  1  0.50000000  0.96977000  0.94760000  1
  C  C281  1  0.23330000  0.00000000  0.50000000  1
  C  C282  1  0.31260000  0.00000000  0.50000000  1
  C  C283  1  0.46030000  0.00000000  0.50000000  1
  C  C284  1  0.73330000  0.50000000  0.00000000  1
  C  C285  1  0.81260000  0.50000000  0.00000000  1
  C  C286  1  0.96030000  0.50000000  0.00000000  1
  C  C287  1  0.76670000  0.00000000  0.50000000  1
  C  C288  1  0.68740000  0.00000000  0.50000000  1
  C  C289  1  0.53970000  0.00000000  0.50000000  1
  C  C290  1  0.26670000  0.50000000  0.00000000  1
  C  C291  1  0.18740000  0.50000000  0.00000000  1
  C  C292  1  0.03970000  0.50000000  0.00000000  1
  C  C293  1  0.00000000  0.00000000  0.31300000  1
  C  C294  1  0.00000000  0.00000000  0.24790000  1
  C  C295  1  0.00000000  0.00000000  0.12660000  1
  C  C296  1  0.00000000  0.00000000  0.06080000  1
  C  C297  1  0.00000000  0.00000000  0.68700000  1
  C  C298  1  0.00000000  0.00000000  0.75210000  1
  C  C299  1  0.00000000  0.00000000  0.87340000  1
  C  C300  1  1.00000000  0.00000000  0.93920000  1
  C  C301  1  0.50000000  0.68700000  0.00000000  1
  C  C302  1  0.50000000  0.75210000  0.00000000  1
  C  C303  1  0.50000000  0.87340000  0.00000000  1
  C  C304  1  0.50000000  0.93920000  0.00000000  1
  C  C305  1  0.50000000  0.31300000  0.00000000  1
  C  C306  1  0.50000000  0.24790000  0.00000000  1
  C  C307  1  0.50000000  0.12660000  0.00000000  1
  C  C308  1  0.50000000  0.06080000  0.00000000  1
  O  O309  1  0.13060000  0.08630000  0.39290000  1
  O  O310  1  0.07180000  0.15720000  0.44210000  1
  O  O311  1  0.13060000  0.91370000  0.60710000  1
  O  O312  1  0.07180000  0.84280000  0.55790000  1
  O  O313  1  0.63060000  0.60710000  0.08630000  1
  O  O314  1  0.57180000  0.55790000  0.15720000  1
  O  O315  1  0.63060000  0.39290000  0.91370000  1
  O  O316  1  0.57180000  0.44210000  0.84280000  1
  O  O317  1  0.86940000  0.91370000  0.39290000  1
  O  O318  1  0.92820000  0.84280000  0.44210000  1
  O  O319  1  0.86940000  0.08630000  0.60710000  1
  O  O320  1  0.92820000  0.15720000  0.55790000  1
  O  O321  1  0.36940000  0.39290000  0.08630000  1
  O  O322  1  0.42820000  0.44210000  0.15720000  1
  O  O323  1  0.36940000  0.60710000  0.91370000  1
  O  O324  1  0.42820000  0.55790000  0.84280000  1
  O  O325  1  0.86940000  0.91370000  0.60710000  1
  O  O326  1  0.92820000  0.84280000  0.55790000  1
  O  O327  1  0.86940000  0.08630000  0.39290000  1
  O  O328  1  0.92820000  0.15720000  0.44210000  1
  O  O329  1  0.36940000  0.39290000  0.91370000  1
  O  O330  1  0.42820000  0.44210000  0.84280000  1
  O  O331  1  0.36940000  0.60710000  0.08630000  1
  O  O332  1  0.42820000  0.55790000  0.15720000  1
  O  O333  1  0.13060000  0.08630000  0.60710000  1
  O  O334  1  0.07180000  0.15720000  0.55790000  1
  O  O335  1  0.13060000  0.91370000  0.39290000  1
  O  O336  1  0.07180000  0.84280000  0.44210000  1
  O  O337  1  0.63060000  0.60710000  0.91370000  1
  O  O338  1  0.57180000  0.55790000  0.84280000  1
  O  O339  1  0.63060000  0.39290000  0.08630000  1
  O  O340  1  0.57180000  0.44210000  0.15720000  1
  O  O341  1  0.20830000  0.00000000  0.43350000  1
  O  O342  1  0.07020000  0.00000000  0.32910000  1
  O  O343  1  0.20830000  0.00000000  0.56650000  1
  O  O344  1  0.07020000  0.00000000  0.67090000  1
  O  O345  1  0.70830000  0.56650000  0.00000000  1
  O  O346  1  0.57020000  0.67090000  0.00000000  1
  O  O347  1  0.70830000  0.43350000  0.00000000  1
  O  O348  1  0.57020000  0.32910000  0.00000000  1
  O  O349  1  0.79170000  0.00000000  0.43350000  1
  O  O350  1  0.92980000  0.00000000  0.32910000  1
  O  O351  1  0.79170000  0.00000000  0.56650000  1
  O  O352  1  0.92980000  0.00000000  0.67090000  1
  O  O353  1  0.29170000  0.43350000  0.00000000  1
  O  O354  1  0.42980000  0.32910000  0.00000000  1
  O  O355  1  0.29170000  0.56650000  0.00000000  1
  O  O356  1  0.42980000  0.67090000  0.00000000  1
  O  O357  1  0.09210000  0.05280000  0.50000000  1
  O  O358  1  0.09210000  0.94720000  0.50000000  1
  O  O359  1  0.59210000  0.50000000  0.05280000  1
  O  O360  1  0.59210000  0.50000000  0.94720000  1
  O  O361  1  0.90790000  0.94720000  0.50000000  1
  O  O362  1  0.90790000  0.05280000  0.50000000  1
  O  O363  1  0.40790000  0.50000000  0.05280000  1
  O  O364  1  0.40790000  0.50000000  0.94720000  1
  O  O365  1  0.00000000  0.05380000  0.42570000  1
  O  O366  1  1.00000000  0.94620000  0.57430000  1
  O  O367  1  0.50000000  0.57430000  0.05380000  1
  O  O368  1  0.50000000  0.42570000  0.94620000  1
  O  O369  1  0.00000000  0.94620000  0.42570000  1
  O  O370  1  0.00000000  0.05380000  0.57430000  1
  O  O371  1  0.50000000  0.42570000  0.05380000  1
  O  O372  1  0.50000000  0.57430000  0.94620000  1
  F  F373  1  0.31300000  0.20460000  0.20690000  1
  F  F374  1  0.38100000  0.19230000  0.29410000  1
  F  F375  1  0.30600000  0.11520000  0.25980000  1
  F  F376  1  0.31300000  0.79540000  0.79310000  1
  F  F377  1  0.38100000  0.80770000  0.70590000  1
  F  F378  1  0.30600000  0.88480000  0.74020000  1
  F  F379  1  0.81300000  0.79310000  0.20460000  1
  F  F380  1  0.88100000  0.70590000  0.19230000  1
  F  F381  1  0.80600000  0.74020000  0.11520000  1
  F  F382  1  0.70180000  0.34710000  0.61130000  1
  F  F383  1  0.60950000  0.28200000  0.64050000  1
  F  F384  1  0.59120000  0.38400000  0.64510000  1
  F  F385  1  0.79820000  0.61130000  0.34710000  1
  F  F386  1  0.89050000  0.64050000  0.28200000  1
  F  F387  1  0.90880000  0.64510000  0.38400000  1
  F  F388  1  0.68700000  0.20460000  0.79310000  1
  F  F389  1  0.61900000  0.19230000  0.70590000  1
  F  F390  1  0.69400000  0.11520000  0.74020000  1
  F  F391  1  0.29820000  0.34710000  0.38870000  1
  F  F392  1  0.39050000  0.28200000  0.35950000  1
  F  F393  1  0.40880000  0.38400000  0.35490000  1
  F  F394  1  0.29820000  0.65290000  0.61130000  1
  F  F395  1  0.39050000  0.71800000  0.64050000  1
  F  F396  1  0.40880000  0.61600000  0.64510000  1
  F  F397  1  0.79820000  0.61130000  0.65290000  1
  F  F398  1  0.89050000  0.64050000  0.71800000  1
  F  F399  1  0.90880000  0.64510000  0.61600000  1
  F  F400  1  0.68700000  0.20460000  0.20690000  1
  F  F401  1  0.61900000  0.19230000  0.29410000  1
  F  F402  1  0.69400000  0.11520000  0.25980000  1
  F  F403  1  0.18700000  0.20690000  0.79540000  1
  F  F404  1  0.11900000  0.29410000  0.80770000  1
  F  F405  1  0.19400000  0.25980000  0.88480000  1
  F  F406  1  0.29820000  0.65290000  0.38870000  1
  F  F407  1  0.39050000  0.71800000  0.35950000  1
  F  F408  1  0.40880000  0.61600000  0.35490000  1
  F  F409  1  0.20180000  0.38870000  0.65290000  1
  F  F410  1  0.10950000  0.35950000  0.71800000  1
  F  F411  1  0.09120000  0.35490000  0.61600000  1
  F  F412  1  0.31300000  0.79540000  0.20690000  1
  F  F413  1  0.38100000  0.80770000  0.29410000  1
  F  F414  1  0.30600000  0.88480000  0.25980000  1
  F  F415  1  0.81300000  0.79310000  0.79540000  1
  F  F416  1  0.88100000  0.70590000  0.80770000  1
  F  F417  1  0.80600000  0.74020000  0.88480000  1
  F  F418  1  0.70180000  0.34710000  0.38870000  1
  F  F419  1  0.60950000  0.28200000  0.35950000  1
  F  F420  1  0.59120000  0.38400000  0.35490000  1
