# generated using pymatgen
data_Zr3H34(C23O6)2
_symmetry_space_group_name_H-M   'P 1'
_cell_length_a   19.00420000
_cell_length_b   19.00420000
_cell_length_c   33.15200000
_cell_angle_alpha   90.00000000
_cell_angle_beta   90.00000000
_cell_angle_gamma   90.00000000
_symmetry_Int_Tables_number   1
_chemical_formula_structural   Zr3H34(C23O6)2
_chemical_formula_sum   'Zr12 H136 C184 O48'
_cell_volume   11973.16364400
_cell_formula_units_Z   4
loop_
 _symmetry_equiv_pos_site_id
 _symmetry_equiv_pos_as_xyz
  1  'x, y, z'
loop_
 _atom_site_type_symbol
 _atom_site_label
 _atom_site_symmetry_multiplicity
 _atom_site_fract_x
 _atom_site_fract_y
 _atom_site_fract_z
 _atom_site_occupancy
  Zr  Zr0  1  0.12426000  0.04460000  0.00000000  1
  Zr  Zr1  1  0.87574000  0.95540000  0.00000000  1
  Zr  Zr2  1  0.95540000  0.12426000  0.00000000  1
  Zr  Zr3  1  0.04460000  0.87574000  0.00000000  1
  Zr  Zr4  1  0.37574000  0.54460000  0.50000000  1
  Zr  Zr5  1  0.62426000  0.45540000  0.50000000  1
  Zr  Zr6  1  0.54460000  0.62426000  0.50000000  1
  Zr  Zr7  1  0.45540000  0.37574000  0.50000000  1
  Zr  Zr8  1  0.00000000  0.00000000  0.07354000  1
  Zr  Zr9  1  0.50000000  0.50000000  0.42646000  1
  Zr  Zr10  1  0.00000000  0.00000000  0.92646000  1
  Zr  Zr11  1  0.50000000  0.50000000  0.57354000  1
  H  H12  1  0.96590000  0.15030000  0.17520000  1
  H  H13  1  0.95370000  0.22540000  0.23100000  1
  H  H14  1  0.04250000  0.45830000  0.18200000  1
  H  H15  1  0.02280000  0.38020000  0.17180000  1
  H  H16  1  0.07590000  0.39650000  0.20670000  1
  H  H17  1  0.90450000  0.29190000  0.09160000  1
  H  H18  1  0.89160000  0.36740000  0.14690000  1
  H  H19  1  0.82050000  0.27940000  0.22840000  1
  H  H20  1  0.81280000  0.28710000  0.27520000  1
  H  H21  1  0.76660000  0.33340000  0.24640000  1
  H  H22  1  0.03410000  0.84970000  0.17520000  1
  H  H23  1  0.04630000  0.77460000  0.23100000  1
  H  H24  1  0.95750000  0.54170000  0.18200000  1
  H  H25  1  0.97720000  0.61980000  0.17180000  1
  H  H26  1  0.92410000  0.60350000  0.20670000  1
  H  H27  1  0.09550000  0.70810000  0.09160000  1
  H  H28  1  0.10840000  0.63260000  0.14690000  1
  H  H29  1  0.17950000  0.72060000  0.22840000  1
  H  H30  1  0.18720000  0.71290000  0.27520000  1
  H  H31  1  0.23340000  0.66666667  0.24640000  1
  H  H32  1  0.84970000  0.96590000  0.17520000  1
  H  H33  1  0.77460000  0.95370000  0.23100000  1
  H  H34  1  0.54170000  0.04250000  0.18200000  1
  H  H35  1  0.61980000  0.02280000  0.17180000  1
  H  H36  1  0.60350000  0.07590000  0.20670000  1
  H  H37  1  0.70810000  0.90450000  0.09160000  1
  H  H38  1  0.63260000  0.89160000  0.14690000  1
  H  H39  1  0.15030000  0.03410000  0.17520000  1
  H  H40  1  0.22540000  0.04630000  0.23100000  1
  H  H41  1  0.45830000  0.95750000  0.18200000  1
  H  H42  1  0.38020000  0.97720000  0.17180000  1
  H  H43  1  0.39650000  0.92410000  0.20670000  1
  H  H44  1  0.29190000  0.09550000  0.09160000  1
  H  H45  1  0.36740000  0.10840000  0.14690000  1
  H  H46  1  0.27940000  0.17950000  0.22840000  1
  H  H47  1  0.28710000  0.18720000  0.27520000  1
  H  H48  1  0.33340000  0.23340000  0.24640000  1
  H  H49  1  0.53410000  0.65030000  0.32480000  1
  H  H50  1  0.54630000  0.72540000  0.26900000  1
  H  H51  1  0.45750000  0.95830000  0.31800000  1
  H  H52  1  0.47720000  0.88020000  0.32820000  1
  H  H53  1  0.42410000  0.89650000  0.29330000  1
  H  H54  1  0.59550000  0.79190000  0.40840000  1
  H  H55  1  0.60840000  0.86740000  0.35310000  1
  H  H56  1  0.67950000  0.77940000  0.27160000  1
  H  H57  1  0.68720000  0.78710000  0.22480000  1
  H  H58  1  0.73340000  0.83340000  0.25360000  1
  H  H59  1  0.46590000  0.34970000  0.32480000  1
  H  H60  1  0.45370000  0.27460000  0.26900000  1
  H  H61  1  0.54250000  0.04170000  0.31800000  1
  H  H62  1  0.52280000  0.11980000  0.32820000  1
  H  H63  1  0.57590000  0.10350000  0.29330000  1
  H  H64  1  0.40450000  0.20810000  0.40840000  1
  H  H65  1  0.39160000  0.13260000  0.35310000  1
  H  H66  1  0.65030000  0.46590000  0.32480000  1
  H  H67  1  0.72540000  0.45370000  0.26900000  1
  H  H68  1  0.95830000  0.54250000  0.31800000  1
  H  H69  1  0.88020000  0.52280000  0.32820000  1
  H  H70  1  0.89650000  0.57590000  0.29330000  1
  H  H71  1  0.79190000  0.40450000  0.40840000  1
  H  H72  1  0.86740000  0.39160000  0.35310000  1
  H  H73  1  0.34970000  0.53410000  0.32480000  1
  H  H74  1  0.27460000  0.54630000  0.26900000  1
  H  H75  1  0.04170000  0.45750000  0.31800000  1
  H  H76  1  0.11980000  0.47720000  0.32820000  1
  H  H77  1  0.10350000  0.42410000  0.29330000  1
  H  H78  1  0.20810000  0.59550000  0.40840000  1
  H  H79  1  0.13260000  0.60840000  0.35310000  1
  H  H80  1  0.03410000  0.84970000  0.82480000  1
  H  H81  1  0.04630000  0.77460000  0.76900000  1
  H  H82  1  0.95750000  0.54170000  0.81800000  1
  H  H83  1  0.97720000  0.61980000  0.82820000  1
  H  H84  1  0.92410000  0.60350000  0.79330000  1
  H  H85  1  0.09550000  0.70810000  0.90840000  1
  H  H86  1  0.10840000  0.63260000  0.85310000  1
  H  H87  1  0.96590000  0.15030000  0.82480000  1
  H  H88  1  0.95370000  0.22540000  0.76900000  1
  H  H89  1  0.04250000  0.45830000  0.81800000  1
  H  H90  1  0.02280000  0.38020000  0.82820000  1
  H  H91  1  0.07590000  0.39650000  0.79330000  1
  H  H92  1  0.90450000  0.29190000  0.90840000  1
  H  H93  1  0.89160000  0.36740000  0.85310000  1
  H  H94  1  0.82050000  0.27940000  0.77160000  1
  H  H95  1  0.81280000  0.28710000  0.72480000  1
  H  H96  1  0.76660000  0.33340000  0.75360000  1
  H  H97  1  0.15030000  0.03410000  0.82480000  1
  H  H98  1  0.22540000  0.04630000  0.76900000  1
  H  H99  1  0.45830000  0.95750000  0.81800000  1
  H  H100  1  0.38020000  0.97720000  0.82820000  1
  H  H101  1  0.39650000  0.92410000  0.79330000  1
  H  H102  1  0.29190000  0.09550000  0.90840000  1
  H  H103  1  0.36740000  0.10840000  0.85310000  1
  H  H104  1  0.84970000  0.96590000  0.82480000  1
  H  H105  1  0.77460000  0.95370000  0.76900000  1
  H  H106  1  0.54170000  0.04250000  0.81800000  1
  H  H107  1  0.61980000  0.02280000  0.82820000  1
  H  H108  1  0.60350000  0.07590000  0.79330000  1
  H  H109  1  0.70810000  0.90450000  0.90840000  1
  H  H110  1  0.63260000  0.89160000  0.85310000  1
  H  H111  1  0.46590000  0.34970000  0.67520000  1
  H  H112  1  0.45370000  0.27460000  0.73100000  1
  H  H113  1  0.54250000  0.04170000  0.68200000  1
  H  H114  1  0.52280000  0.11980000  0.67180000  1
  H  H115  1  0.57590000  0.10350000  0.70670000  1
  H  H116  1  0.40450000  0.20810000  0.59160000  1
  H  H117  1  0.39160000  0.13260000  0.64690000  1
  H  H118  1  0.32050000  0.22060000  0.72840000  1
  H  H119  1  0.31280000  0.21290000  0.77520000  1
  H  H120  1  0.26660000  0.16660000  0.74640000  1
  H  H121  1  0.53410000  0.65030000  0.67520000  1
  H  H122  1  0.54630000  0.72540000  0.73100000  1
  H  H123  1  0.45750000  0.95830000  0.68200000  1
  H  H124  1  0.47720000  0.88020000  0.67180000  1
  H  H125  1  0.42410000  0.89650000  0.70670000  1
  H  H126  1  0.59550000  0.79190000  0.59160000  1
  H  H127  1  0.60840000  0.86740000  0.64690000  1
  H  H128  1  0.67950000  0.77940000  0.72840000  1
  H  H129  1  0.68720000  0.78710000  0.77520000  1
  H  H130  1  0.73340000  0.83340000  0.74640000  1
  H  H131  1  0.34970000  0.53410000  0.67520000  1
  H  H132  1  0.27460000  0.54630000  0.73100000  1
  H  H133  1  0.04170000  0.45750000  0.68200000  1
  H  H134  1  0.11980000  0.47720000  0.67180000  1
  H  H135  1  0.10350000  0.42410000  0.70670000  1
  H  H136  1  0.20810000  0.59550000  0.59160000  1
  H  H137  1  0.13260000  0.60840000  0.64690000  1
  H  H138  1  0.22060000  0.67950000  0.72840000  1
  H  H139  1  0.21290000  0.68720000  0.77520000  1
  H  H140  1  0.16660000  0.73340000  0.74640000  1
  H  H141  1  0.65030000  0.46590000  0.67520000  1
  H  H142  1  0.72540000  0.45370000  0.73100000  1
  H  H143  1  0.95830000  0.54250000  0.68200000  1
  H  H144  1  0.88020000  0.52280000  0.67180000  1
  H  H145  1  0.89650000  0.57590000  0.70670000  1
  H  H146  1  0.79190000  0.40450000  0.59160000  1
  H  H147  1  0.86740000  0.39160000  0.64690000  1
  C  C148  1  0.97380000  0.41580000  0.22280000  1
  C  C149  1  0.94990000  0.19580000  0.17040000  1
  C  C150  1  0.94020000  0.15180000  0.10020000  1
  C  C151  1  0.94470000  0.23880000  0.20450000  1
  C  C152  1  0.92050000  0.36570000  0.22110000  1
  C  C153  1  0.03430000  0.41240000  0.19310000  1
  C  C154  1  0.93440000  0.21130000  0.13020000  1
  C  C155  1  0.92370000  0.30570000  0.19170000  1
  C  C156  1  0.91340000  0.27840000  0.11810000  1
  C  C157  1  0.90780000  0.32200000  0.15170000  1
  C  C158  1  0.02620000  0.58420000  0.22280000  1
  C  C159  1  0.05010000  0.80420000  0.17040000  1
  C  C160  1  0.05980000  0.84820000  0.10020000  1
  C  C161  1  0.05530000  0.76120000  0.20450000  1
  C  C162  1  0.07950000  0.63430000  0.22110000  1
  C  C163  1  0.96570000  0.58760000  0.19310000  1
  C  C164  1  0.06560000  0.78870000  0.13020000  1
  C  C165  1  0.07630000  0.69430000  0.19170000  1
  C  C166  1  0.08660000  0.72160000  0.11810000  1
  C  C167  1  0.09220000  0.67800000  0.15170000  1
  C  C168  1  0.58420000  0.97380000  0.22280000  1
  C  C169  1  0.80420000  0.94990000  0.17040000  1
  C  C170  1  0.84820000  0.94020000  0.10020000  1
  C  C171  1  0.76120000  0.94470000  0.20450000  1
  C  C172  1  0.63430000  0.92050000  0.22110000  1
  C  C173  1  0.58760000  0.03430000  0.19310000  1
  C  C174  1  0.78870000  0.93440000  0.13020000  1
  C  C175  1  0.69430000  0.92370000  0.19170000  1
  C  C176  1  0.72160000  0.91340000  0.11810000  1
  C  C177  1  0.67800000  0.90780000  0.15170000  1
  C  C178  1  0.41580000  0.02620000  0.22280000  1
  C  C179  1  0.19580000  0.05010000  0.17040000  1
  C  C180  1  0.15180000  0.05980000  0.10020000  1
  C  C181  1  0.23880000  0.05530000  0.20450000  1
  C  C182  1  0.36570000  0.07950000  0.22110000  1
  C  C183  1  0.41240000  0.96570000  0.19310000  1
  C  C184  1  0.21130000  0.06560000  0.13020000  1
  C  C185  1  0.30570000  0.07630000  0.19170000  1
  C  C186  1  0.27840000  0.08660000  0.11810000  1
  C  C187  1  0.32200000  0.09220000  0.15170000  1
  C  C188  1  0.52620000  0.91580000  0.27720000  1
  C  C189  1  0.55010000  0.69580000  0.32960000  1
  C  C190  1  0.55980000  0.65180000  0.39980000  1
  C  C191  1  0.55530000  0.73880000  0.29550000  1
  C  C192  1  0.57950000  0.86570000  0.27890000  1
  C  C193  1  0.46570000  0.91240000  0.30690000  1
  C  C194  1  0.56560000  0.71130000  0.36980000  1
  C  C195  1  0.57630000  0.80570000  0.30830000  1
  C  C196  1  0.58660000  0.77840000  0.38190000  1
  C  C197  1  0.59220000  0.82200000  0.34830000  1
  C  C198  1  0.47380000  0.08420000  0.27720000  1
  C  C199  1  0.44990000  0.30420000  0.32960000  1
  C  C200  1  0.44020000  0.34820000  0.39980000  1
  C  C201  1  0.44470000  0.26120000  0.29550000  1
  C  C202  1  0.42050000  0.13430000  0.27890000  1
  C  C203  1  0.53430000  0.08760000  0.30690000  1
  C  C204  1  0.43440000  0.28870000  0.36980000  1
  C  C205  1  0.42370000  0.19430000  0.30830000  1
  C  C206  1  0.41340000  0.22160000  0.38190000  1
  C  C207  1  0.40780000  0.17800000  0.34830000  1
  C  C208  1  0.91580000  0.47380000  0.27720000  1
  C  C209  1  0.69580000  0.44990000  0.32960000  1
  C  C210  1  0.65180000  0.44020000  0.39980000  1
  C  C211  1  0.73880000  0.44470000  0.29550000  1
  C  C212  1  0.86570000  0.42050000  0.27890000  1
  C  C213  1  0.91240000  0.53430000  0.30690000  1
  C  C214  1  0.71130000  0.43440000  0.36980000  1
  C  C215  1  0.80570000  0.42370000  0.30830000  1
  C  C216  1  0.77840000  0.41340000  0.38190000  1
  C  C217  1  0.82200000  0.40780000  0.34830000  1
  C  C218  1  0.08420000  0.52620000  0.27720000  1
  C  C219  1  0.30420000  0.55010000  0.32960000  1
  C  C220  1  0.34820000  0.55980000  0.39980000  1
  C  C221  1  0.26120000  0.55530000  0.29550000  1
  C  C222  1  0.13430000  0.57950000  0.27890000  1
  C  C223  1  0.08760000  0.46570000  0.30690000  1
  C  C224  1  0.28870000  0.56560000  0.36980000  1
  C  C225  1  0.19430000  0.57630000  0.30830000  1
  C  C226  1  0.22160000  0.58660000  0.38190000  1
  C  C227  1  0.17800000  0.59220000  0.34830000  1
  C  C228  1  0.02620000  0.58420000  0.77720000  1
  C  C229  1  0.05010000  0.80420000  0.82960000  1
  C  C230  1  0.05980000  0.84820000  0.89980000  1
  C  C231  1  0.05530000  0.76120000  0.79550000  1
  C  C232  1  0.07950000  0.63430000  0.77890000  1
  C  C233  1  0.96570000  0.58760000  0.80690000  1
  C  C234  1  0.06560000  0.78870000  0.86980000  1
  C  C235  1  0.07630000  0.69430000  0.80830000  1
  C  C236  1  0.08660000  0.72160000  0.88190000  1
  C  C237  1  0.09220000  0.67800000  0.84830000  1
  C  C238  1  0.97380000  0.41580000  0.77720000  1
  C  C239  1  0.94990000  0.19580000  0.82960000  1
  C  C240  1  0.94020000  0.15180000  0.89980000  1
  C  C241  1  0.94470000  0.23880000  0.79550000  1
  C  C242  1  0.92050000  0.36570000  0.77890000  1
  C  C243  1  0.03430000  0.41240000  0.80690000  1
  C  C244  1  0.93440000  0.21130000  0.86980000  1
  C  C245  1  0.92370000  0.30570000  0.80830000  1
  C  C246  1  0.91340000  0.27840000  0.88190000  1
  C  C247  1  0.90780000  0.32200000  0.84830000  1
  C  C248  1  0.41580000  0.02620000  0.77720000  1
  C  C249  1  0.19580000  0.05010000  0.82960000  1
  C  C250  1  0.15180000  0.05980000  0.89980000  1
  C  C251  1  0.23880000  0.05530000  0.79550000  1
  C  C252  1  0.36570000  0.07950000  0.77890000  1
  C  C253  1  0.41240000  0.96570000  0.80690000  1
  C  C254  1  0.21130000  0.06560000  0.86980000  1
  C  C255  1  0.30570000  0.07630000  0.80830000  1
  C  C256  1  0.27840000  0.08660000  0.88190000  1
  C  C257  1  0.32200000  0.09220000  0.84830000  1
  C  C258  1  0.58420000  0.97380000  0.77720000  1
  C  C259  1  0.80420000  0.94990000  0.82960000  1
  C  C260  1  0.84820000  0.94020000  0.89980000  1
  C  C261  1  0.76120000  0.94470000  0.79550000  1
  C  C262  1  0.63430000  0.92050000  0.77890000  1
  C  C263  1  0.58760000  0.03430000  0.80690000  1
  C  C264  1  0.78870000  0.93440000  0.86980000  1
  C  C265  1  0.69430000  0.92370000  0.80830000  1
  C  C266  1  0.72160000  0.91340000  0.88190000  1
  C  C267  1  0.67800000  0.90780000  0.84830000  1
  C  C268  1  0.47380000  0.08420000  0.72280000  1
  C  C269  1  0.44990000  0.30420000  0.67040000  1
  C  C270  1  0.44020000  0.34820000  0.60020000  1
  C  C271  1  0.44470000  0.26120000  0.70450000  1
  C  C272  1  0.42050000  0.13430000  0.72110000  1
  C  C273  1  0.53430000  0.08760000  0.69310000  1
  C  C274  1  0.43440000  0.28870000  0.63020000  1
  C  C275  1  0.42370000  0.19430000  0.69170000  1
  C  C276  1  0.41340000  0.22160000  0.61810000  1
  C  C277  1  0.40780000  0.17800000  0.65170000  1
  C  C278  1  0.52620000  0.91580000  0.72280000  1
  C  C279  1  0.55010000  0.69580000  0.67040000  1
  C  C280  1  0.55980000  0.65180000  0.60020000  1
  C  C281  1  0.55530000  0.73880000  0.70450000  1
  C  C282  1  0.57950000  0.86570000  0.72110000  1
  C  C283  1  0.46570000  0.91240000  0.69310000  1
  C  C284  1  0.56560000  0.71130000  0.63020000  1
  C  C285  1  0.57630000  0.80570000  0.69170000  1
  C  C286  1  0.58660000  0.77840000  0.61810000  1
  C  C287  1  0.59220000  0.82200000  0.65170000  1
  C  C288  1  0.08420000  0.52620000  0.72280000  1
  C  C289  1  0.30420000  0.55010000  0.67040000  1
  C  C290  1  0.34820000  0.55980000  0.60020000  1
  C  C291  1  0.26120000  0.55530000  0.70450000  1
  C  C292  1  0.13430000  0.57950000  0.72110000  1
  C  C293  1  0.08760000  0.46570000  0.69310000  1
  C  C294  1  0.28870000  0.56560000  0.63020000  1
  C  C295  1  0.19430000  0.57630000  0.69170000  1
  C  C296  1  0.22160000  0.58660000  0.61810000  1
  C  C297  1  0.17800000  0.59220000  0.65170000  1
  C  C298  1  0.91580000  0.47380000  0.72280000  1
  C  C299  1  0.69580000  0.44990000  0.67040000  1
  C  C300  1  0.65180000  0.44020000  0.60020000  1
  C  C301  1  0.73880000  0.44470000  0.70450000  1
  C  C302  1  0.86570000  0.42050000  0.72110000  1
  C  C303  1  0.91240000  0.53430000  0.69310000  1
  C  C304  1  0.71130000  0.43440000  0.63020000  1
  C  C305  1  0.80570000  0.42370000  0.69170000  1
  C  C306  1  0.77840000  0.41340000  0.61810000  1
  C  C307  1  0.82200000  0.40780000  0.65170000  1
  C  C308  1  0.97197000  0.47197000  0.25000000  1
  C  C309  1  0.86780000  0.36780000  0.25000000  1
  C  C310  1  0.81190000  0.31190000  0.25000000  1
  C  C311  1  0.02803000  0.52803000  0.25000000  1
  C  C312  1  0.13220000  0.63220000  0.25000000  1
  C  C313  1  0.18810000  0.68810000  0.25000000  1
  C  C314  1  0.52803000  0.97197000  0.25000000  1
  C  C315  1  0.63220000  0.86780000  0.25000000  1
  C  C316  1  0.68810000  0.81190000  0.25000000  1
  C  C317  1  0.47197000  0.02803000  0.25000000  1
  C  C318  1  0.36780000  0.13220000  0.25000000  1
  C  C319  1  0.31190000  0.18810000  0.25000000  1
  C  C320  1  0.02803000  0.52803000  0.75000000  1
  C  C321  1  0.13220000  0.63220000  0.75000000  1
  C  C322  1  0.18810000  0.68810000  0.75000000  1
  C  C323  1  0.97197000  0.47197000  0.75000000  1
  C  C324  1  0.86780000  0.36780000  0.75000000  1
  C  C325  1  0.81190000  0.31190000  0.75000000  1
  C  C326  1  0.47197000  0.02803000  0.75000000  1
  C  C327  1  0.36780000  0.13220000  0.75000000  1
  C  C328  1  0.31190000  0.18810000  0.75000000  1
  C  C329  1  0.52803000  0.97197000  0.75000000  1
  C  C330  1  0.63220000  0.86780000  0.75000000  1
  C  C331  1  0.68810000  0.81190000  0.75000000  1
  O  O332  1  0.97180000  0.09140000  0.10810000  1
  O  O333  1  0.93810000  0.17410000  0.05970000  1
  O  O334  1  0.04040000  0.08390000  0.03660000  1
  O  O335  1  0.02820000  0.90860000  0.10810000  1
  O  O336  1  0.06190000  0.82590000  0.05970000  1
  O  O337  1  0.95960000  0.91610000  0.03660000  1
  O  O338  1  0.90860000  0.97180000  0.10810000  1
  O  O339  1  0.82590000  0.93810000  0.05970000  1
  O  O340  1  0.91610000  0.04040000  0.03660000  1
  O  O341  1  0.09140000  0.02820000  0.10810000  1
  O  O342  1  0.17410000  0.06190000  0.05970000  1
  O  O343  1  0.08390000  0.95960000  0.03660000  1
  O  O344  1  0.52820000  0.59140000  0.39190000  1
  O  O345  1  0.56190000  0.67410000  0.44030000  1
  O  O346  1  0.45960000  0.58390000  0.46340000  1
  O  O347  1  0.47180000  0.40860000  0.39190000  1
  O  O348  1  0.43810000  0.32590000  0.44030000  1
  O  O349  1  0.54040000  0.41610000  0.46340000  1
  O  O350  1  0.59140000  0.47180000  0.39190000  1
  O  O351  1  0.67410000  0.43810000  0.44030000  1
  O  O352  1  0.58390000  0.54040000  0.46340000  1
  O  O353  1  0.40860000  0.52820000  0.39190000  1
  O  O354  1  0.32590000  0.56190000  0.44030000  1
  O  O355  1  0.41610000  0.45960000  0.46340000  1
  O  O356  1  0.02820000  0.90860000  0.89190000  1
  O  O357  1  0.06190000  0.82590000  0.94030000  1
  O  O358  1  0.95960000  0.91610000  0.96340000  1
  O  O359  1  0.97180000  0.09140000  0.89190000  1
  O  O360  1  0.93810000  0.17410000  0.94030000  1
  O  O361  1  0.04040000  0.08390000  0.96340000  1
  O  O362  1  0.09140000  0.02820000  0.89190000  1
  O  O363  1  0.17410000  0.06190000  0.94030000  1
  O  O364  1  0.08390000  0.95960000  0.96340000  1
  O  O365  1  0.90860000  0.97180000  0.89190000  1
  O  O366  1  0.82590000  0.93810000  0.94030000  1
  O  O367  1  0.91610000  0.04040000  0.96340000  1
  O  O368  1  0.47180000  0.40860000  0.60810000  1
  O  O369  1  0.43810000  0.32590000  0.55970000  1
  O  O370  1  0.54040000  0.41610000  0.53660000  1
  O  O371  1  0.52820000  0.59140000  0.60810000  1
  O  O372  1  0.56190000  0.67410000  0.55970000  1
  O  O373  1  0.45960000  0.58390000  0.53660000  1
  O  O374  1  0.40860000  0.52820000  0.60810000  1
  O  O375  1  0.32590000  0.56190000  0.55970000  1
  O  O376  1  0.41610000  0.45960000  0.53660000  1
  O  O377  1  0.59140000  0.47180000  0.60810000  1
  O  O378  1  0.67410000  0.43810000  0.55970000  1
  O  O379  1  0.58390000  0.54040000  0.53660000  1
