# generated using pymatgen
data_Zr3H34(C23O6)2
_symmetry_space_group_name_H-M   'P 1'
_cell_length_a   18.77900000
_cell_length_b   18.77900000
_cell_length_c   33.08700000
_cell_angle_alpha   90.00000000
_cell_angle_beta   90.00000000
_cell_angle_gamma   90.00000000
_symmetry_Int_Tables_number   1
_chemical_formula_structural   Zr3H34(C23O6)2
_chemical_formula_sum   'Zr12 H136 C184 O48'
_cell_volume   11668.15837617
_cell_formula_units_Z   4
loop_
 _symmetry_equiv_pos_site_id
 _symmetry_equiv_pos_as_xyz
  1  'x, y, z'
loop_
 _atom_site_type_symbol
 _atom_site_label
 _atom_site_symmetry_multiplicity
 _atom_site_fract_x
 _atom_site_fract_y
 _atom_site_fract_z
 _atom_site_occupancy
  Zr  Zr0  1  0.50000000  0.50000000  0.42653000  1
  Zr  Zr1  1  0.00000000  0.00000000  0.07347000  1
  Zr  Zr2  1  0.50000000  0.50000000  0.57347000  1
  Zr  Zr3  1  0.00000000  0.00000000  0.92653000  1
  Zr  Zr4  1  0.62315000  0.54802000  0.50000000  1
  Zr  Zr5  1  0.37685000  0.45198000  0.50000000  1
  Zr  Zr6  1  0.45198000  0.62315000  0.50000000  1
  Zr  Zr7  1  0.54802000  0.37685000  0.50000000  1
  Zr  Zr8  1  0.87685000  0.04802000  0.00000000  1
  Zr  Zr9  1  0.12315000  0.95198000  0.00000000  1
  Zr  Zr10  1  0.04802000  0.12315000  0.00000000  1
  Zr  Zr11  1  0.95198000  0.87685000  0.00000000  1
  H  H12  1  0.04870000  0.53920000  0.32260000  1
  H  H13  1  0.10290000  0.57900000  0.29450000  1
  H  H14  1  0.13060000  0.52490000  0.32700000  1
  H  H15  1  0.35740000  0.46170000  0.32590000  1
  H  H16  1  0.27270000  0.45630000  0.27500000  1
  H  H17  1  0.12500000  0.39670000  0.35610000  1
  H  H18  1  0.20960000  0.40210000  0.40700000  1
  H  H19  1  0.17680000  0.28070000  0.22860000  1
  H  H20  1  0.23170000  0.33570000  0.24590000  1
  H  H21  1  0.18560000  0.28950000  0.27550000  1
  H  H22  1  0.95130000  0.46080000  0.32260000  1
  H  H23  1  0.89710000  0.42100000  0.29450000  1
  H  H24  1  0.86940000  0.47510000  0.32700000  1
  H  H25  1  0.64260000  0.53830000  0.32590000  1
  H  H26  1  0.72730000  0.54370000  0.27500000  1
  H  H27  1  0.87500000  0.60330000  0.35610000  1
  H  H28  1  0.79040000  0.59790000  0.40700000  1
  H  H29  1  0.82320000  0.71930000  0.22860000  1
  H  H30  1  0.76830000  0.66430000  0.24590000  1
  H  H31  1  0.81440000  0.71050000  0.27550000  1
  H  H32  1  0.46080000  0.04870000  0.32260000  1
  H  H33  1  0.42100000  0.10290000  0.29450000  1
  H  H34  1  0.47510000  0.13060000  0.32700000  1
  H  H35  1  0.53830000  0.35740000  0.32590000  1
  H  H36  1  0.54370000  0.27270000  0.27500000  1
  H  H37  1  0.60330000  0.12500000  0.35610000  1
  H  H38  1  0.59790000  0.20960000  0.40700000  1
  H  H39  1  0.71930000  0.17680000  0.22860000  1
  H  H40  1  0.66430000  0.23170000  0.24590000  1
  H  H41  1  0.71050000  0.18560000  0.27550000  1
  H  H42  1  0.53920000  0.95130000  0.32260000  1
  H  H43  1  0.57900000  0.89710000  0.29450000  1
  H  H44  1  0.52490000  0.86940000  0.32700000  1
  H  H45  1  0.46170000  0.64260000  0.32590000  1
  H  H46  1  0.45630000  0.72730000  0.27500000  1
  H  H47  1  0.39670000  0.87500000  0.35610000  1
  H  H48  1  0.40210000  0.79040000  0.40700000  1
  H  H49  1  0.45130000  0.03920000  0.17740000  1
  H  H50  1  0.39710000  0.07900000  0.20550000  1
  H  H51  1  0.36940000  0.02490000  0.17300000  1
  H  H52  1  0.14260000  0.96170000  0.17410000  1
  H  H53  1  0.22730000  0.95630000  0.22500000  1
  H  H54  1  0.37500000  0.89670000  0.14390000  1
  H  H55  1  0.29040000  0.90210000  0.09300000  1
  H  H56  1  0.32320000  0.78070000  0.27140000  1
  H  H57  1  0.26830000  0.83570000  0.25410000  1
  H  H58  1  0.31440000  0.78950000  0.22450000  1
  H  H59  1  0.54870000  0.96080000  0.17740000  1
  H  H60  1  0.60290000  0.92100000  0.20550000  1
  H  H61  1  0.63060000  0.97510000  0.17300000  1
  H  H62  1  0.85740000  0.03830000  0.17410000  1
  H  H63  1  0.77270000  0.04370000  0.22500000  1
  H  H64  1  0.62500000  0.10330000  0.14390000  1
  H  H65  1  0.70960000  0.09790000  0.09300000  1
  H  H66  1  0.03920000  0.54870000  0.17740000  1
  H  H67  1  0.07900000  0.60290000  0.20550000  1
  H  H68  1  0.02490000  0.63060000  0.17300000  1
  H  H69  1  0.96170000  0.85740000  0.17410000  1
  H  H70  1  0.95630000  0.77270000  0.22500000  1
  H  H71  1  0.89670000  0.62500000  0.14390000  1
  H  H72  1  0.90210000  0.70960000  0.09300000  1
  H  H73  1  0.96080000  0.45130000  0.17740000  1
  H  H74  1  0.92100000  0.39710000  0.20550000  1
  H  H75  1  0.97510000  0.36940000  0.17300000  1
  H  H76  1  0.03830000  0.14260000  0.17410000  1
  H  H77  1  0.04370000  0.22730000  0.22500000  1
  H  H78  1  0.10330000  0.37500000  0.14390000  1
  H  H79  1  0.09790000  0.29040000  0.09300000  1
  H  H80  1  0.95130000  0.46080000  0.67740000  1
  H  H81  1  0.89710000  0.42100000  0.70550000  1
  H  H82  1  0.86940000  0.47510000  0.67300000  1
  H  H83  1  0.64260000  0.53830000  0.67410000  1
  H  H84  1  0.72730000  0.54370000  0.72500000  1
  H  H85  1  0.87500000  0.60330000  0.64390000  1
  H  H86  1  0.79040000  0.59790000  0.59300000  1
  H  H87  1  0.82320000  0.71930000  0.77140000  1
  H  H88  1  0.76830000  0.66430000  0.75410000  1
  H  H89  1  0.81440000  0.71050000  0.72450000  1
  H  H90  1  0.04870000  0.53920000  0.67740000  1
  H  H91  1  0.10290000  0.57900000  0.70550000  1
  H  H92  1  0.13060000  0.52490000  0.67300000  1
  H  H93  1  0.35740000  0.46170000  0.67410000  1
  H  H94  1  0.27270000  0.45630000  0.72500000  1
  H  H95  1  0.12500000  0.39670000  0.64390000  1
  H  H96  1  0.20960000  0.40210000  0.59300000  1
  H  H97  1  0.17680000  0.28070000  0.77140000  1
  H  H98  1  0.23170000  0.33570000  0.75410000  1
  H  H99  1  0.18560000  0.28950000  0.72450000  1
  H  H100  1  0.53920000  0.95130000  0.67740000  1
  H  H101  1  0.57900000  0.89710000  0.70550000  1
  H  H102  1  0.52490000  0.86940000  0.67300000  1
  H  H103  1  0.46170000  0.64260000  0.67410000  1
  H  H104  1  0.45630000  0.72730000  0.72500000  1
  H  H105  1  0.39670000  0.87500000  0.64390000  1
  H  H106  1  0.40210000  0.79040000  0.59300000  1
  H  H107  1  0.46080000  0.04870000  0.67740000  1
  H  H108  1  0.42100000  0.10290000  0.70550000  1
  H  H109  1  0.47510000  0.13060000  0.67300000  1
  H  H110  1  0.53830000  0.35740000  0.67410000  1
  H  H111  1  0.54370000  0.27270000  0.72500000  1
  H  H112  1  0.60330000  0.12500000  0.64390000  1
  H  H113  1  0.59790000  0.20960000  0.59300000  1
  H  H114  1  0.71930000  0.17680000  0.77140000  1
  H  H115  1  0.66430000  0.23170000  0.75410000  1
  H  H116  1  0.71050000  0.18560000  0.72450000  1
  H  H117  1  0.54870000  0.96080000  0.82260000  1
  H  H118  1  0.60290000  0.92100000  0.79450000  1
  H  H119  1  0.63060000  0.97510000  0.82700000  1
  H  H120  1  0.85740000  0.03830000  0.82590000  1
  H  H121  1  0.77270000  0.04370000  0.77500000  1
  H  H122  1  0.62500000  0.10330000  0.85610000  1
  H  H123  1  0.70960000  0.09790000  0.90700000  1
  H  H124  1  0.45130000  0.03920000  0.82260000  1
  H  H125  1  0.39710000  0.07900000  0.79450000  1
  H  H126  1  0.36940000  0.02490000  0.82700000  1
  H  H127  1  0.14260000  0.96170000  0.82590000  1
  H  H128  1  0.22730000  0.95630000  0.77500000  1
  H  H129  1  0.37500000  0.89670000  0.85610000  1
  H  H130  1  0.29040000  0.90210000  0.90700000  1
  H  H131  1  0.32320000  0.78070000  0.72860000  1
  H  H132  1  0.26830000  0.83570000  0.74590000  1
  H  H133  1  0.31440000  0.78950000  0.77550000  1
  H  H134  1  0.96080000  0.45130000  0.82260000  1
  H  H135  1  0.92100000  0.39710000  0.79450000  1
  H  H136  1  0.97510000  0.36940000  0.82700000  1
  H  H137  1  0.03830000  0.14260000  0.82590000  1
  H  H138  1  0.04370000  0.22730000  0.77500000  1
  H  H139  1  0.10330000  0.37500000  0.85610000  1
  H  H140  1  0.09790000  0.29040000  0.90700000  1
  H  H141  1  0.03920000  0.54870000  0.82260000  1
  H  H142  1  0.07900000  0.60290000  0.79450000  1
  H  H143  1  0.02490000  0.63060000  0.82700000  1
  H  H144  1  0.96170000  0.85740000  0.82590000  1
  H  H145  1  0.95630000  0.77270000  0.77500000  1
  H  H146  1  0.89670000  0.62500000  0.85610000  1
  H  H147  1  0.90210000  0.70960000  0.90700000  1
  C  C148  1  0.35180000  0.43790000  0.40190000  1
  C  C149  1  0.08760000  0.47520000  0.27760000  1
  C  C150  1  0.13490000  0.42200000  0.27870000  1
  C  C151  1  0.09290000  0.53510000  0.30830000  1
  C  C152  1  0.31080000  0.44866000  0.33197000  1
  C  C153  1  0.26010000  0.44541000  0.30143000  1
  C  C154  1  0.19050000  0.42596000  0.31045000  1
  C  C155  1  0.17160000  0.40975000  0.35002000  1
  C  C156  1  0.22230000  0.41299000  0.38056000  1
  C  C157  1  0.29190000  0.43245000  0.37153000  1
  C  C158  1  0.64820000  0.56210000  0.40190000  1
  C  C159  1  0.91240000  0.52480000  0.27760000  1
  C  C160  1  0.86510000  0.57800000  0.27870000  1
  C  C161  1  0.90710000  0.46490000  0.30830000  1
  C  C162  1  0.68920000  0.55134000  0.33197000  1
  C  C163  1  0.73990000  0.55459000  0.30143000  1
  C  C164  1  0.80950000  0.57404000  0.31045000  1
  C  C165  1  0.82840000  0.59025000  0.35002000  1
  C  C166  1  0.77770000  0.58701000  0.38056000  1
  C  C167  1  0.70810000  0.56755000  0.37153000  1
  C  C168  1  0.56210000  0.35180000  0.40190000  1
  C  C169  1  0.52480000  0.08760000  0.27760000  1
  C  C170  1  0.57800000  0.13490000  0.27870000  1
  C  C171  1  0.46490000  0.09290000  0.30830000  1
  C  C172  1  0.55134000  0.31080000  0.33197000  1
  C  C173  1  0.55459000  0.26010000  0.30143000  1
  C  C174  1  0.57404000  0.19050000  0.31045000  1
  C  C175  1  0.59025000  0.17160000  0.35002000  1
  C  C176  1  0.58701000  0.22230000  0.38056000  1
  C  C177  1  0.56755000  0.29190000  0.37153000  1
  C  C178  1  0.43790000  0.64820000  0.40190000  1
  C  C179  1  0.47520000  0.91240000  0.27760000  1
  C  C180  1  0.42200000  0.86510000  0.27870000  1
  C  C181  1  0.53510000  0.90710000  0.30830000  1
  C  C182  1  0.44866000  0.68920000  0.33197000  1
  C  C183  1  0.44541000  0.73990000  0.30143000  1
  C  C184  1  0.42596000  0.80950000  0.31045000  1
  C  C185  1  0.40975000  0.82840000  0.35002000  1
  C  C186  1  0.41299000  0.77770000  0.38056000  1
  C  C187  1  0.43245000  0.70810000  0.37153000  1
  C  C188  1  0.14820000  0.93790000  0.09810000  1
  C  C189  1  0.41240000  0.97520000  0.22240000  1
  C  C190  1  0.36510000  0.92200000  0.22130000  1
  C  C191  1  0.40710000  0.03510000  0.19170000  1
  C  C192  1  0.18920000  0.94866000  0.16803000  1
  C  C193  1  0.23990000  0.94541000  0.19857000  1
  C  C194  1  0.30950000  0.92596000  0.18955000  1
  C  C195  1  0.32840000  0.90975000  0.14998000  1
  C  C196  1  0.27770000  0.91299000  0.11944000  1
  C  C197  1  0.20810000  0.93245000  0.12847000  1
  C  C198  1  0.85180000  0.06210000  0.09810000  1
  C  C199  1  0.58760000  0.02480000  0.22240000  1
  C  C200  1  0.63490000  0.07800000  0.22130000  1
  C  C201  1  0.59290000  0.96490000  0.19170000  1
  C  C202  1  0.81080000  0.05134000  0.16803000  1
  C  C203  1  0.76010000  0.05459000  0.19857000  1
  C  C204  1  0.69050000  0.07404000  0.18955000  1
  C  C205  1  0.67160000  0.09025000  0.14998000  1
  C  C206  1  0.72230000  0.08701000  0.11944000  1
  C  C207  1  0.79190000  0.06755000  0.12847000  1
  C  C208  1  0.93790000  0.85180000  0.09810000  1
  C  C209  1  0.97520000  0.58760000  0.22240000  1
  C  C210  1  0.92200000  0.63490000  0.22130000  1
  C  C211  1  0.03510000  0.59290000  0.19170000  1
  C  C212  1  0.94866000  0.81080000  0.16803000  1
  C  C213  1  0.94541000  0.76010000  0.19857000  1
  C  C214  1  0.92596000  0.69050000  0.18955000  1
  C  C215  1  0.90975000  0.67160000  0.14998000  1
  C  C216  1  0.91299000  0.72230000  0.11944000  1
  C  C217  1  0.93245000  0.79190000  0.12847000  1
  C  C218  1  0.06210000  0.14820000  0.09810000  1
  C  C219  1  0.02480000  0.41240000  0.22240000  1
  C  C220  1  0.07800000  0.36510000  0.22130000  1
  C  C221  1  0.96490000  0.40710000  0.19170000  1
  C  C222  1  0.05134000  0.18920000  0.16803000  1
  C  C223  1  0.05459000  0.23990000  0.19857000  1
  C  C224  1  0.07404000  0.30950000  0.18955000  1
  C  C225  1  0.09025000  0.32840000  0.14998000  1
  C  C226  1  0.08701000  0.27770000  0.11944000  1
  C  C227  1  0.06755000  0.20810000  0.12847000  1
  C  C228  1  0.64820000  0.56210000  0.59810000  1
  C  C229  1  0.91240000  0.52480000  0.72240000  1
  C  C230  1  0.86510000  0.57800000  0.72130000  1
  C  C231  1  0.90710000  0.46490000  0.69170000  1
  C  C232  1  0.68920000  0.55134000  0.66803000  1
  C  C233  1  0.73990000  0.55459000  0.69857000  1
  C  C234  1  0.80950000  0.57404000  0.68955000  1
  C  C235  1  0.82840000  0.59025000  0.64998000  1
  C  C236  1  0.77770000  0.58701000  0.61944000  1
  C  C237  1  0.70810000  0.56755000  0.62847000  1
  C  C238  1  0.35180000  0.43790000  0.59810000  1
  C  C239  1  0.08760000  0.47520000  0.72240000  1
  C  C240  1  0.13490000  0.42200000  0.72130000  1
  C  C241  1  0.09290000  0.53510000  0.69170000  1
  C  C242  1  0.31080000  0.44866000  0.66803000  1
  C  C243  1  0.26010000  0.44541000  0.69857000  1
  C  C244  1  0.19050000  0.42596000  0.68955000  1
  C  C245  1  0.17160000  0.40975000  0.64998000  1
  C  C246  1  0.22230000  0.41299000  0.61944000  1
  C  C247  1  0.29190000  0.43245000  0.62847000  1
  C  C248  1  0.43790000  0.64820000  0.59810000  1
  C  C249  1  0.47520000  0.91240000  0.72240000  1
  C  C250  1  0.42200000  0.86510000  0.72130000  1
  C  C251  1  0.53510000  0.90710000  0.69170000  1
  C  C252  1  0.44866000  0.68920000  0.66803000  1
  C  C253  1  0.44541000  0.73990000  0.69857000  1
  C  C254  1  0.42596000  0.80950000  0.68955000  1
  C  C255  1  0.40975000  0.82840000  0.64998000  1
  C  C256  1  0.41299000  0.77770000  0.61944000  1
  C  C257  1  0.43245000  0.70810000  0.62847000  1
  C  C258  1  0.56210000  0.35180000  0.59810000  1
  C  C259  1  0.52480000  0.08760000  0.72240000  1
  C  C260  1  0.57800000  0.13490000  0.72130000  1
  C  C261  1  0.46490000  0.09290000  0.69170000  1
  C  C262  1  0.55134000  0.31080000  0.66803000  1
  C  C263  1  0.55459000  0.26010000  0.69857000  1
  C  C264  1  0.57404000  0.19050000  0.68955000  1
  C  C265  1  0.59025000  0.17160000  0.64998000  1
  C  C266  1  0.58701000  0.22230000  0.61944000  1
  C  C267  1  0.56755000  0.29190000  0.62847000  1
  C  C268  1  0.85180000  0.06210000  0.90190000  1
  C  C269  1  0.58760000  0.02480000  0.77760000  1
  C  C270  1  0.63490000  0.07800000  0.77870000  1
  C  C271  1  0.59290000  0.96490000  0.80830000  1
  C  C272  1  0.81080000  0.05134000  0.83197000  1
  C  C273  1  0.76010000  0.05459000  0.80143000  1
  C  C274  1  0.69050000  0.07404000  0.81045000  1
  C  C275  1  0.67160000  0.09025000  0.85002000  1
  C  C276  1  0.72230000  0.08701000  0.88056000  1
  C  C277  1  0.79190000  0.06755000  0.87153000  1
  C  C278  1  0.14820000  0.93790000  0.90190000  1
  C  C279  1  0.41240000  0.97520000  0.77760000  1
  C  C280  1  0.36510000  0.92200000  0.77870000  1
  C  C281  1  0.40710000  0.03510000  0.80830000  1
  C  C282  1  0.18920000  0.94866000  0.83197000  1
  C  C283  1  0.23990000  0.94541000  0.80143000  1
  C  C284  1  0.30950000  0.92596000  0.81045000  1
  C  C285  1  0.32840000  0.90975000  0.85002000  1
  C  C286  1  0.27770000  0.91299000  0.88056000  1
  C  C287  1  0.20810000  0.93245000  0.87153000  1
  C  C288  1  0.06210000  0.14820000  0.90190000  1
  C  C289  1  0.02480000  0.41240000  0.77760000  1
  C  C290  1  0.07800000  0.36510000  0.77870000  1
  C  C291  1  0.96490000  0.40710000  0.80830000  1
  C  C292  1  0.05134000  0.18920000  0.83197000  1
  C  C293  1  0.05459000  0.23990000  0.80143000  1
  C  C294  1  0.07404000  0.30950000  0.81045000  1
  C  C295  1  0.09025000  0.32840000  0.85002000  1
  C  C296  1  0.08701000  0.27770000  0.88056000  1
  C  C297  1  0.06755000  0.20810000  0.87153000  1
  C  C298  1  0.93790000  0.85180000  0.90190000  1
  C  C299  1  0.97520000  0.58760000  0.77760000  1
  C  C300  1  0.92200000  0.63490000  0.77870000  1
  C  C301  1  0.03510000  0.59290000  0.80830000  1
  C  C302  1  0.94866000  0.81080000  0.83197000  1
  C  C303  1  0.94541000  0.76010000  0.80143000  1
  C  C304  1  0.92596000  0.69050000  0.81045000  1
  C  C305  1  0.90975000  0.67160000  0.85002000  1
  C  C306  1  0.91299000  0.72230000  0.88056000  1
  C  C307  1  0.93245000  0.79190000  0.87153000  1
  C  C308  1  0.02886000  0.47114000  0.25000000  1
  C  C309  1  0.13030000  0.36970000  0.25000000  1
  C  C310  1  0.18600000  0.31400000  0.25000000  1
  C  C311  1  0.97114000  0.52886000  0.25000000  1
  C  C312  1  0.86970000  0.63030000  0.25000000  1
  C  C313  1  0.81400000  0.68600000  0.25000000  1
  C  C314  1  0.52886000  0.02886000  0.25000000  1
  C  C315  1  0.63030000  0.13030000  0.25000000  1
  C  C316  1  0.68600000  0.18600000  0.25000000  1
  C  C317  1  0.47114000  0.97114000  0.25000000  1
  C  C318  1  0.36970000  0.86970000  0.25000000  1
  C  C319  1  0.31400000  0.81400000  0.25000000  1
  C  C320  1  0.97114000  0.52886000  0.75000000  1
  C  C321  1  0.86970000  0.63030000  0.75000000  1
  C  C322  1  0.81400000  0.68600000  0.75000000  1
  C  C323  1  0.02886000  0.47114000  0.75000000  1
  C  C324  1  0.13030000  0.36970000  0.75000000  1
  C  C325  1  0.18600000  0.31400000  0.75000000  1
  C  C326  1  0.47114000  0.97114000  0.75000000  1
  C  C327  1  0.36970000  0.86970000  0.75000000  1
  C  C328  1  0.31400000  0.81400000  0.75000000  1
  C  C329  1  0.52886000  0.02886000  0.75000000  1
  C  C330  1  0.63030000  0.13030000  0.75000000  1
  C  C331  1  0.68600000  0.18600000  0.75000000  1
  O  O332  1  0.40720000  0.46500000  0.39270000  1
  O  O333  1  0.53970000  0.58640000  0.46440000  1
  O  O334  1  0.32760000  0.43250000  0.43940000  1
  O  O335  1  0.59280000  0.53500000  0.39270000  1
  O  O336  1  0.46030000  0.41360000  0.46440000  1
  O  O337  1  0.67240000  0.56750000  0.43940000  1
  O  O338  1  0.53500000  0.40720000  0.39270000  1
  O  O339  1  0.41360000  0.53970000  0.46440000  1
  O  O340  1  0.56750000  0.32760000  0.43940000  1
  O  O341  1  0.46500000  0.59280000  0.39270000  1
  O  O342  1  0.58640000  0.46030000  0.46440000  1
  O  O343  1  0.43250000  0.67240000  0.43940000  1
  O  O344  1  0.09280000  0.96500000  0.10730000  1
  O  O345  1  0.96030000  0.08640000  0.03560000  1
  O  O346  1  0.17240000  0.93250000  0.06060000  1
  O  O347  1  0.90720000  0.03500000  0.10730000  1
  O  O348  1  0.03970000  0.91360000  0.03560000  1
  O  O349  1  0.82760000  0.06750000  0.06060000  1
  O  O350  1  0.96500000  0.90720000  0.10730000  1
  O  O351  1  0.08640000  0.03970000  0.03560000  1
  O  O352  1  0.93250000  0.82760000  0.06060000  1
  O  O353  1  0.03500000  0.09280000  0.10730000  1
  O  O354  1  0.91360000  0.96030000  0.03560000  1
  O  O355  1  0.06750000  0.17240000  0.06060000  1
  O  O356  1  0.59280000  0.53500000  0.60730000  1
  O  O357  1  0.46030000  0.41360000  0.53560000  1
  O  O358  1  0.67240000  0.56750000  0.56060000  1
  O  O359  1  0.40720000  0.46500000  0.60730000  1
  O  O360  1  0.53970000  0.58640000  0.53560000  1
  O  O361  1  0.32760000  0.43250000  0.56060000  1
  O  O362  1  0.46500000  0.59280000  0.60730000  1
  O  O363  1  0.58640000  0.46030000  0.53560000  1
  O  O364  1  0.43250000  0.67240000  0.56060000  1
  O  O365  1  0.53500000  0.40720000  0.60730000  1
  O  O366  1  0.41360000  0.53970000  0.53560000  1
  O  O367  1  0.56750000  0.32760000  0.56060000  1
  O  O368  1  0.90720000  0.03500000  0.89270000  1
  O  O369  1  0.03970000  0.91360000  0.96440000  1
  O  O370  1  0.82760000  0.06750000  0.93940000  1
  O  O371  1  0.09280000  0.96500000  0.89270000  1
  O  O372  1  0.96030000  0.08640000  0.96440000  1
  O  O373  1  0.17240000  0.93250000  0.93940000  1
  O  O374  1  0.03500000  0.09280000  0.89270000  1
  O  O375  1  0.91360000  0.96030000  0.96440000  1
  O  O376  1  0.06750000  0.17240000  0.93940000  1
  O  O377  1  0.96500000  0.90720000  0.89270000  1
  O  O378  1  0.08640000  0.03970000  0.96440000  1
  O  O379  1  0.93250000  0.82760000  0.93940000  1
