# generated using pymatgen
data_Zr3H34(C23O6)2
_symmetry_space_group_name_H-M   'P 1'
_cell_length_a   19.02430000
_cell_length_b   19.02430000
_cell_length_c   33.17400000
_cell_angle_alpha   90.00000000
_cell_angle_beta   90.00000000
_cell_angle_gamma   90.00000000
_symmetry_Int_Tables_number   1
_chemical_formula_structural   Zr3H34(C23O6)2
_chemical_formula_sum   'Zr12 H136 C184 O48'
_cell_volume   12006.46646052
_cell_formula_units_Z   4
loop_
 _symmetry_equiv_pos_site_id
 _symmetry_equiv_pos_as_xyz
  1  'x, y, z'
loop_
 _atom_site_type_symbol
 _atom_site_label
 _atom_site_symmetry_multiplicity
 _atom_site_fract_x
 _atom_site_fract_y
 _atom_site_fract_z
 _atom_site_occupancy
  Zr  Zr0  1  0.12385000  0.04496000  0.00000000  1
  Zr  Zr1  1  0.87615000  0.95504000  0.00000000  1
  Zr  Zr2  1  0.95504000  0.12385000  0.00000000  1
  Zr  Zr3  1  0.04496000  0.87615000  0.00000000  1
  Zr  Zr4  1  0.37615000  0.54496000  0.50000000  1
  Zr  Zr5  1  0.62385000  0.45504000  0.50000000  1
  Zr  Zr6  1  0.54496000  0.62385000  0.50000000  1
  Zr  Zr7  1  0.45504000  0.37615000  0.50000000  1
  Zr  Zr8  1  0.00000000  0.00000000  0.07351000  1
  Zr  Zr9  1  0.50000000  0.50000000  0.42649000  1
  Zr  Zr10  1  0.00000000  0.00000000  0.92649000  1
  Zr  Zr11  1  0.50000000  0.50000000  0.57351000  1
  H  H12  1  0.96940000  0.14830000  0.17450000  1
  H  H13  1  0.96140000  0.22750000  0.22980000  1
  H  H14  1  0.06410000  0.44930000  0.19520000  1
  H  H15  1  0.05480000  0.36750000  0.19320000  1
  H  H16  1  0.01060000  0.41620000  0.16470000  1
  H  H17  1  0.89880000  0.28890000  0.08980000  1
  H  H18  1  0.88760000  0.36530000  0.14610000  1
  H  H19  1  0.82410000  0.28290000  0.22850000  1
  H  H20  1  0.81620000  0.29080000  0.27530000  1
  H  H21  1  0.77020000  0.33680000  0.24630000  1
  H  H22  1  0.03060000  0.85170000  0.17450000  1
  H  H23  1  0.03860000  0.77250000  0.22980000  1
  H  H24  1  0.93590000  0.55070000  0.19520000  1
  H  H25  1  0.94520000  0.63250000  0.19320000  1
  H  H26  1  0.98940000  0.58380000  0.16470000  1
  H  H27  1  0.10120000  0.71110000  0.08980000  1
  H  H28  1  0.11240000  0.63470000  0.14610000  1
  H  H29  1  0.85170000  0.96940000  0.17450000  1
  H  H30  1  0.77250000  0.96140000  0.22980000  1
  H  H31  1  0.55070000  0.06410000  0.19520000  1
  H  H32  1  0.63250000  0.05480000  0.19320000  1
  H  H33  1  0.58380000  0.01060000  0.16470000  1
  H  H34  1  0.71110000  0.89880000  0.08980000  1
  H  H35  1  0.63470000  0.88760000  0.14610000  1
  H  H36  1  0.14830000  0.03060000  0.17450000  1
  H  H37  1  0.22750000  0.03860000  0.22980000  1
  H  H38  1  0.44930000  0.93590000  0.19520000  1
  H  H39  1  0.36750000  0.94520000  0.19320000  1
  H  H40  1  0.41620000  0.98940000  0.16470000  1
  H  H41  1  0.28890000  0.10120000  0.08980000  1
  H  H42  1  0.36530000  0.11240000  0.14610000  1
  H  H43  1  0.28290000  0.17590000  0.22850000  1
  H  H44  1  0.29080000  0.18380000  0.27530000  1
  H  H45  1  0.33680000  0.22980000  0.24630000  1
  H  H46  1  0.53060000  0.64830000  0.32550000  1
  H  H47  1  0.53860000  0.72750000  0.27020000  1
  H  H48  1  0.43590000  0.94930000  0.30480000  1
  H  H49  1  0.44520000  0.86750000  0.30680000  1
  H  H50  1  0.48940000  0.91620000  0.33530000  1
  H  H51  1  0.60120000  0.78890000  0.41020000  1
  H  H52  1  0.61240000  0.86530000  0.35390000  1
  H  H53  1  0.67590000  0.78290000  0.27150000  1
  H  H54  1  0.68380000  0.79080000  0.22470000  1
  H  H55  1  0.72980000  0.83680000  0.25370000  1
  H  H56  1  0.46940000  0.35170000  0.32550000  1
  H  H57  1  0.46140000  0.27250000  0.27020000  1
  H  H58  1  0.56410000  0.05070000  0.30480000  1
  H  H59  1  0.55480000  0.13250000  0.30680000  1
  H  H60  1  0.51060000  0.08380000  0.33530000  1
  H  H61  1  0.39880000  0.21110000  0.41020000  1
  H  H62  1  0.38760000  0.13470000  0.35390000  1
  H  H63  1  0.64830000  0.46940000  0.32550000  1
  H  H64  1  0.72750000  0.46140000  0.27020000  1
  H  H65  1  0.94930000  0.56410000  0.30480000  1
  H  H66  1  0.86750000  0.55480000  0.30680000  1
  H  H67  1  0.91620000  0.51060000  0.33530000  1
  H  H68  1  0.78890000  0.39880000  0.41020000  1
  H  H69  1  0.86530000  0.38760000  0.35390000  1
  H  H70  1  0.35170000  0.53060000  0.32550000  1
  H  H71  1  0.27250000  0.53860000  0.27020000  1
  H  H72  1  0.05070000  0.43590000  0.30480000  1
  H  H73  1  0.13250000  0.44520000  0.30680000  1
  H  H74  1  0.08380000  0.48940000  0.33530000  1
  H  H75  1  0.21110000  0.60120000  0.41020000  1
  H  H76  1  0.13470000  0.61240000  0.35390000  1
  H  H77  1  0.21710000  0.67590000  0.27150000  1
  H  H78  1  0.20920000  0.68380000  0.22470000  1
  H  H79  1  0.16320000  0.72980000  0.25370000  1
  H  H80  1  0.03060000  0.85170000  0.82550000  1
  H  H81  1  0.03860000  0.77250000  0.77020000  1
  H  H82  1  0.93590000  0.55070000  0.80480000  1
  H  H83  1  0.94520000  0.63250000  0.80680000  1
  H  H84  1  0.98940000  0.58380000  0.83530000  1
  H  H85  1  0.10120000  0.71110000  0.91020000  1
  H  H86  1  0.11240000  0.63470000  0.85390000  1
  H  H87  1  0.96940000  0.14830000  0.82550000  1
  H  H88  1  0.96140000  0.22750000  0.77020000  1
  H  H89  1  0.06410000  0.44930000  0.80480000  1
  H  H90  1  0.05480000  0.36750000  0.80680000  1
  H  H91  1  0.01060000  0.41620000  0.83530000  1
  H  H92  1  0.89880000  0.28890000  0.91020000  1
  H  H93  1  0.88760000  0.36530000  0.85390000  1
  H  H94  1  0.82410000  0.28290000  0.77150000  1
  H  H95  1  0.81620000  0.29080000  0.72470000  1
  H  H96  1  0.77020000  0.33680000  0.75370000  1
  H  H97  1  0.14830000  0.03060000  0.82550000  1
  H  H98  1  0.22750000  0.03860000  0.77020000  1
  H  H99  1  0.44930000  0.93590000  0.80480000  1
  H  H100  1  0.36750000  0.94520000  0.80680000  1
  H  H101  1  0.41620000  0.98940000  0.83530000  1
  H  H102  1  0.28890000  0.10120000  0.91020000  1
  H  H103  1  0.36530000  0.11240000  0.85390000  1
  H  H104  1  0.85170000  0.96940000  0.82550000  1
  H  H105  1  0.77250000  0.96140000  0.77020000  1
  H  H106  1  0.55070000  0.06410000  0.80480000  1
  H  H107  1  0.63250000  0.05480000  0.80680000  1
  H  H108  1  0.58380000  0.01060000  0.83530000  1
  H  H109  1  0.71110000  0.89880000  0.91020000  1
  H  H110  1  0.63470000  0.88760000  0.85390000  1
  H  H111  1  0.46940000  0.35170000  0.67450000  1
  H  H112  1  0.46140000  0.27250000  0.72980000  1
  H  H113  1  0.56410000  0.05070000  0.69520000  1
  H  H114  1  0.55480000  0.13250000  0.69320000  1
  H  H115  1  0.51060000  0.08380000  0.66470000  1
  H  H116  1  0.39880000  0.21110000  0.58980000  1
  H  H117  1  0.38760000  0.13470000  0.64610000  1
  H  H118  1  0.32410000  0.21710000  0.72850000  1
  H  H119  1  0.31620000  0.20920000  0.77530000  1
  H  H120  1  0.27020000  0.16320000  0.74630000  1
  H  H121  1  0.53060000  0.64830000  0.67450000  1
  H  H122  1  0.53860000  0.72750000  0.72980000  1
  H  H123  1  0.43590000  0.94930000  0.69520000  1
  H  H124  1  0.44520000  0.86750000  0.69320000  1
  H  H125  1  0.48940000  0.91620000  0.66470000  1
  H  H126  1  0.60120000  0.78890000  0.58980000  1
  H  H127  1  0.61240000  0.86530000  0.64610000  1
  H  H128  1  0.67590000  0.78290000  0.72850000  1
  H  H129  1  0.68380000  0.79080000  0.77530000  1
  H  H130  1  0.72980000  0.83680000  0.74630000  1
  H  H131  1  0.35170000  0.53060000  0.67450000  1
  H  H132  1  0.27250000  0.53860000  0.72980000  1
  H  H133  1  0.05070000  0.43590000  0.69520000  1
  H  H134  1  0.13250000  0.44520000  0.69320000  1
  H  H135  1  0.08380000  0.48940000  0.66470000  1
  H  H136  1  0.21110000  0.60120000  0.58980000  1
  H  H137  1  0.13470000  0.61240000  0.64610000  1
  H  H138  1  0.21710000  0.67590000  0.72850000  1
  H  H139  1  0.20920000  0.68380000  0.77530000  1
  H  H140  1  0.16320000  0.72980000  0.74630000  1
  H  H141  1  0.64830000  0.46940000  0.67450000  1
  H  H142  1  0.72750000  0.46140000  0.72980000  1
  H  H143  1  0.94930000  0.56410000  0.69520000  1
  H  H144  1  0.86750000  0.55480000  0.69320000  1
  H  H145  1  0.91620000  0.51060000  0.66470000  1
  H  H146  1  0.78890000  0.39880000  0.58980000  1
  H  H147  1  0.86530000  0.38760000  0.64610000  1
  C  C148  1  0.97370000  0.41610000  0.22260000  1
  C  C149  1  0.95340000  0.19390000  0.17020000  1
  C  C150  1  0.93970000  0.15360000  0.10070000  1
  C  C151  1  0.95020000  0.23920000  0.20330000  1
  C  C152  1  0.92200000  0.36450000  0.22000000  1
  C  C153  1  0.03100000  0.41190000  0.19100000  1
  C  C154  1  0.93400000  0.21280000  0.13100000  1
  C  C155  1  0.92750000  0.30510000  0.18990000  1
  C  C156  1  0.90990000  0.27740000  0.11630000  1
  C  C157  1  0.90630000  0.32070000  0.15020000  1
  C  C158  1  0.02630000  0.58390000  0.22260000  1
  C  C159  1  0.04660000  0.80610000  0.17020000  1
  C  C160  1  0.06030000  0.84640000  0.10070000  1
  C  C161  1  0.04980000  0.76080000  0.20330000  1
  C  C162  1  0.07800000  0.63550000  0.22000000  1
  C  C163  1  0.96900000  0.58810000  0.19100000  1
  C  C164  1  0.06600000  0.78720000  0.13100000  1
  C  C165  1  0.07250000  0.69490000  0.18990000  1
  C  C166  1  0.09010000  0.72260000  0.11630000  1
  C  C167  1  0.09370000  0.67930000  0.15020000  1
  C  C168  1  0.58390000  0.97370000  0.22260000  1
  C  C169  1  0.80610000  0.95340000  0.17020000  1
  C  C170  1  0.84640000  0.93970000  0.10070000  1
  C  C171  1  0.76080000  0.95020000  0.20330000  1
  C  C172  1  0.63550000  0.92200000  0.22000000  1
  C  C173  1  0.58810000  0.03100000  0.19100000  1
  C  C174  1  0.78720000  0.93400000  0.13100000  1
  C  C175  1  0.69490000  0.92750000  0.18990000  1
  C  C176  1  0.72260000  0.90990000  0.11630000  1
  C  C177  1  0.67930000  0.90630000  0.15020000  1
  C  C178  1  0.41610000  0.02630000  0.22260000  1
  C  C179  1  0.19390000  0.04660000  0.17020000  1
  C  C180  1  0.15360000  0.06030000  0.10070000  1
  C  C181  1  0.23920000  0.04980000  0.20330000  1
  C  C182  1  0.36450000  0.07800000  0.22000000  1
  C  C183  1  0.41190000  0.96900000  0.19100000  1
  C  C184  1  0.21280000  0.06600000  0.13100000  1
  C  C185  1  0.30510000  0.07250000  0.18990000  1
  C  C186  1  0.27740000  0.09010000  0.11630000  1
  C  C187  1  0.32070000  0.09370000  0.15020000  1
  C  C188  1  0.52630000  0.91610000  0.27740000  1
  C  C189  1  0.54660000  0.69390000  0.32980000  1
  C  C190  1  0.56030000  0.65360000  0.39930000  1
  C  C191  1  0.54980000  0.73920000  0.29670000  1
  C  C192  1  0.57800000  0.86450000  0.28000000  1
  C  C193  1  0.46900000  0.91190000  0.30900000  1
  C  C194  1  0.56600000  0.71280000  0.36900000  1
  C  C195  1  0.57250000  0.80510000  0.31010000  1
  C  C196  1  0.59010000  0.77740000  0.38370000  1
  C  C197  1  0.59370000  0.82070000  0.34980000  1
  C  C198  1  0.47370000  0.08390000  0.27740000  1
  C  C199  1  0.45340000  0.30610000  0.32980000  1
  C  C200  1  0.43970000  0.34640000  0.39930000  1
  C  C201  1  0.45020000  0.26080000  0.29670000  1
  C  C202  1  0.42200000  0.13550000  0.28000000  1
  C  C203  1  0.53100000  0.08810000  0.30900000  1
  C  C204  1  0.43400000  0.28720000  0.36900000  1
  C  C205  1  0.42750000  0.19490000  0.31010000  1
  C  C206  1  0.40990000  0.22260000  0.38370000  1
  C  C207  1  0.40630000  0.17930000  0.34980000  1
  C  C208  1  0.91610000  0.47370000  0.27740000  1
  C  C209  1  0.69390000  0.45340000  0.32980000  1
  C  C210  1  0.65360000  0.43970000  0.39930000  1
  C  C211  1  0.73920000  0.45020000  0.29670000  1
  C  C212  1  0.86450000  0.42200000  0.28000000  1
  C  C213  1  0.91190000  0.53100000  0.30900000  1
  C  C214  1  0.71280000  0.43400000  0.36900000  1
  C  C215  1  0.80510000  0.42750000  0.31010000  1
  C  C216  1  0.77740000  0.40990000  0.38370000  1
  C  C217  1  0.82070000  0.40630000  0.34980000  1
  C  C218  1  0.08390000  0.52630000  0.27740000  1
  C  C219  1  0.30610000  0.54660000  0.32980000  1
  C  C220  1  0.34640000  0.56030000  0.39930000  1
  C  C221  1  0.26080000  0.54980000  0.29670000  1
  C  C222  1  0.13550000  0.57800000  0.28000000  1
  C  C223  1  0.08810000  0.46900000  0.30900000  1
  C  C224  1  0.28720000  0.56600000  0.36900000  1
  C  C225  1  0.19490000  0.57250000  0.31010000  1
  C  C226  1  0.22260000  0.59010000  0.38370000  1
  C  C227  1  0.17930000  0.59370000  0.34980000  1
  C  C228  1  0.02630000  0.58390000  0.77740000  1
  C  C229  1  0.04660000  0.80610000  0.82980000  1
  C  C230  1  0.06030000  0.84640000  0.89930000  1
  C  C231  1  0.04980000  0.76080000  0.79670000  1
  C  C232  1  0.07800000  0.63550000  0.78000000  1
  C  C233  1  0.96900000  0.58810000  0.80900000  1
  C  C234  1  0.06600000  0.78720000  0.86900000  1
  C  C235  1  0.07250000  0.69490000  0.81010000  1
  C  C236  1  0.09010000  0.72260000  0.88370000  1
  C  C237  1  0.09370000  0.67930000  0.84980000  1
  C  C238  1  0.97370000  0.41610000  0.77740000  1
  C  C239  1  0.95340000  0.19390000  0.82980000  1
  C  C240  1  0.93970000  0.15360000  0.89930000  1
  C  C241  1  0.95020000  0.23920000  0.79670000  1
  C  C242  1  0.92200000  0.36450000  0.78000000  1
  C  C243  1  0.03100000  0.41190000  0.80900000  1
  C  C244  1  0.93400000  0.21280000  0.86900000  1
  C  C245  1  0.92750000  0.30510000  0.81010000  1
  C  C246  1  0.90990000  0.27740000  0.88370000  1
  C  C247  1  0.90630000  0.32070000  0.84980000  1
  C  C248  1  0.41610000  0.02630000  0.77740000  1
  C  C249  1  0.19390000  0.04660000  0.82980000  1
  C  C250  1  0.15360000  0.06030000  0.89930000  1
  C  C251  1  0.23920000  0.04980000  0.79670000  1
  C  C252  1  0.36450000  0.07800000  0.78000000  1
  C  C253  1  0.41190000  0.96900000  0.80900000  1
  C  C254  1  0.21280000  0.06600000  0.86900000  1
  C  C255  1  0.30510000  0.07250000  0.81010000  1
  C  C256  1  0.27740000  0.09010000  0.88370000  1
  C  C257  1  0.32070000  0.09370000  0.84980000  1
  C  C258  1  0.58390000  0.97370000  0.77740000  1
  C  C259  1  0.80610000  0.95340000  0.82980000  1
  C  C260  1  0.84640000  0.93970000  0.89930000  1
  C  C261  1  0.76080000  0.95020000  0.79670000  1
  C  C262  1  0.63550000  0.92200000  0.78000000  1
  C  C263  1  0.58810000  0.03100000  0.80900000  1
  C  C264  1  0.78720000  0.93400000  0.86900000  1
  C  C265  1  0.69490000  0.92750000  0.81010000  1
  C  C266  1  0.72260000  0.90990000  0.88370000  1
  C  C267  1  0.67930000  0.90630000  0.84980000  1
  C  C268  1  0.47370000  0.08390000  0.72260000  1
  C  C269  1  0.45340000  0.30610000  0.67020000  1
  C  C270  1  0.43970000  0.34640000  0.60070000  1
  C  C271  1  0.45020000  0.26080000  0.70330000  1
  C  C272  1  0.42200000  0.13550000  0.72000000  1
  C  C273  1  0.53100000  0.08810000  0.69100000  1
  C  C274  1  0.43400000  0.28720000  0.63100000  1
  C  C275  1  0.42750000  0.19490000  0.68990000  1
  C  C276  1  0.40990000  0.22260000  0.61630000  1
  C  C277  1  0.40630000  0.17930000  0.65020000  1
  C  C278  1  0.52630000  0.91610000  0.72260000  1
  C  C279  1  0.54660000  0.69390000  0.67020000  1
  C  C280  1  0.56030000  0.65360000  0.60070000  1
  C  C281  1  0.54980000  0.73920000  0.70330000  1
  C  C282  1  0.57800000  0.86450000  0.72000000  1
  C  C283  1  0.46900000  0.91190000  0.69100000  1
  C  C284  1  0.56600000  0.71280000  0.63100000  1
  C  C285  1  0.57250000  0.80510000  0.68990000  1
  C  C286  1  0.59010000  0.77740000  0.61630000  1
  C  C287  1  0.59370000  0.82070000  0.65020000  1
  C  C288  1  0.08390000  0.52630000  0.72260000  1
  C  C289  1  0.30610000  0.54660000  0.67020000  1
  C  C290  1  0.34640000  0.56030000  0.60070000  1
  C  C291  1  0.26080000  0.54980000  0.70330000  1
  C  C292  1  0.13550000  0.57800000  0.72000000  1
  C  C293  1  0.08810000  0.46900000  0.69100000  1
  C  C294  1  0.28720000  0.56600000  0.63100000  1
  C  C295  1  0.19490000  0.57250000  0.68990000  1
  C  C296  1  0.22260000  0.59010000  0.61630000  1
  C  C297  1  0.17930000  0.59370000  0.65020000  1
  C  C298  1  0.91610000  0.47370000  0.72260000  1
  C  C299  1  0.69390000  0.45340000  0.67020000  1
  C  C300  1  0.65360000  0.43970000  0.60070000  1
  C  C301  1  0.73920000  0.45020000  0.70330000  1
  C  C302  1  0.86450000  0.42200000  0.72000000  1
  C  C303  1  0.91190000  0.53100000  0.69100000  1
  C  C304  1  0.71280000  0.43400000  0.63100000  1
  C  C305  1  0.80510000  0.42750000  0.68990000  1
  C  C306  1  0.77740000  0.40990000  0.61630000  1
  C  C307  1  0.82070000  0.40630000  0.65020000  1
  C  C308  1  0.97190000  0.47190000  0.25000000  1
  C  C309  1  0.87130000  0.37130000  0.25000000  1
  C  C310  1  0.81540000  0.31540000  0.25000000  1
  C  C311  1  0.02810000  0.52810000  0.25000000  1
  C  C312  1  0.12870000  0.62870000  0.25000000  1
  C  C313  1  0.18460000  0.68460000  0.25000000  1
  C  C314  1  0.52810000  0.97190000  0.25000000  1
  C  C315  1  0.62870000  0.87130000  0.25000000  1
  C  C316  1  0.68460000  0.81540000  0.25000000  1
  C  C317  1  0.47190000  0.02810000  0.25000000  1
  C  C318  1  0.37130000  0.12870000  0.25000000  1
  C  C319  1  0.31540000  0.18460000  0.25000000  1
  C  C320  1  0.02810000  0.52810000  0.75000000  1
  C  C321  1  0.12870000  0.62870000  0.75000000  1
  C  C322  1  0.18460000  0.68460000  0.75000000  1
  C  C323  1  0.97190000  0.47190000  0.75000000  1
  C  C324  1  0.87130000  0.37130000  0.75000000  1
  C  C325  1  0.81540000  0.31540000  0.75000000  1
  C  C326  1  0.47190000  0.02810000  0.75000000  1
  C  C327  1  0.37130000  0.12870000  0.75000000  1
  C  C328  1  0.31540000  0.18460000  0.75000000  1
  C  C329  1  0.52810000  0.97190000  0.75000000  1
  C  C330  1  0.62870000  0.87130000  0.75000000  1
  C  C331  1  0.68460000  0.81540000  0.75000000  1
  O  O332  1  0.97170000  0.09290000  0.10850000  1
  O  O333  1  0.93960000  0.17360000  0.06030000  1
  O  O334  1  0.03810000  0.08370000  0.03580000  1
  O  O335  1  0.02830000  0.90710000  0.10850000  1
  O  O336  1  0.06040000  0.82640000  0.06030000  1
  O  O337  1  0.96190000  0.91630000  0.03580000  1
  O  O338  1  0.90710000  0.97170000  0.10850000  1
  O  O339  1  0.82640000  0.93960000  0.06030000  1
  O  O340  1  0.91630000  0.03810000  0.03580000  1
  O  O341  1  0.09290000  0.02830000  0.10850000  1
  O  O342  1  0.17360000  0.06040000  0.06030000  1
  O  O343  1  0.08370000  0.96190000  0.03580000  1
  O  O344  1  0.52830000  0.59290000  0.39150000  1
  O  O345  1  0.56040000  0.67360000  0.43970000  1
  O  O346  1  0.46190000  0.58370000  0.46420000  1
  O  O347  1  0.47170000  0.40710000  0.39150000  1
  O  O348  1  0.43960000  0.32640000  0.43970000  1
  O  O349  1  0.53810000  0.41630000  0.46420000  1
  O  O350  1  0.59290000  0.47170000  0.39150000  1
  O  O351  1  0.67360000  0.43960000  0.43970000  1
  O  O352  1  0.58370000  0.53810000  0.46420000  1
  O  O353  1  0.40710000  0.52830000  0.39150000  1
  O  O354  1  0.32640000  0.56040000  0.43970000  1
  O  O355  1  0.41630000  0.46190000  0.46420000  1
  O  O356  1  0.02830000  0.90710000  0.89150000  1
  O  O357  1  0.06040000  0.82640000  0.93970000  1
  O  O358  1  0.96190000  0.91630000  0.96420000  1
  O  O359  1  0.97170000  0.09290000  0.89150000  1
  O  O360  1  0.93960000  0.17360000  0.93970000  1
  O  O361  1  0.03810000  0.08370000  0.96420000  1
  O  O362  1  0.09290000  0.02830000  0.89150000  1
  O  O363  1  0.17360000  0.06040000  0.93970000  1
  O  O364  1  0.08370000  0.96190000  0.96420000  1
  O  O365  1  0.90710000  0.97170000  0.89150000  1
  O  O366  1  0.82640000  0.93960000  0.93970000  1
  O  O367  1  0.91630000  0.03810000  0.96420000  1
  O  O368  1  0.47170000  0.40710000  0.60850000  1
  O  O369  1  0.43960000  0.32640000  0.56030000  1
  O  O370  1  0.53810000  0.41630000  0.53580000  1
  O  O371  1  0.52830000  0.59290000  0.60850000  1
  O  O372  1  0.56040000  0.67360000  0.56030000  1
  O  O373  1  0.46190000  0.58370000  0.53580000  1
  O  O374  1  0.40710000  0.52830000  0.60850000  1
  O  O375  1  0.32640000  0.56040000  0.56030000  1
  O  O376  1  0.41630000  0.46190000  0.53580000  1
  O  O377  1  0.59290000  0.47170000  0.60850000  1
  O  O378  1  0.67360000  0.43960000  0.56030000  1
  O  O379  1  0.58370000  0.53810000  0.53580000  1
