# generated using pymatgen
data_Zr3H34(C23O6)2
_symmetry_space_group_name_H-M   'P 1'
_cell_length_a   19.04100000
_cell_length_b   19.04100000
_cell_length_c   33.13400000
_cell_angle_alpha   90.00000000
_cell_angle_beta   90.00000000
_cell_angle_gamma   90.00000000
_symmetry_Int_Tables_number   1
_chemical_formula_structural   Zr3H34(C23O6)2
_chemical_formula_sum   'Zr12 H136 C184 O48'
_cell_volume   12013.05247025
_cell_formula_units_Z   4
loop_
 _symmetry_equiv_pos_site_id
 _symmetry_equiv_pos_as_xyz
  1  'x, y, z'
loop_
 _atom_site_type_symbol
 _atom_site_label
 _atom_site_symmetry_multiplicity
 _atom_site_fract_x
 _atom_site_fract_y
 _atom_site_fract_z
 _atom_site_occupancy
  Zr  Zr0  1  0.12371000  0.04481000  0.00000000  1
  Zr  Zr1  1  0.87629000  0.95519000  0.00000000  1
  Zr  Zr2  1  0.95519000  0.12371000  0.00000000  1
  Zr  Zr3  1  0.04481000  0.87629000  0.00000000  1
  Zr  Zr4  1  0.37629000  0.54481000  0.50000000  1
  Zr  Zr5  1  0.62371000  0.45519000  0.50000000  1
  Zr  Zr6  1  0.54481000  0.62371000  0.50000000  1
  Zr  Zr7  1  0.45519000  0.37629000  0.50000000  1
  Zr  Zr8  1  0.00000000  0.00000000  0.07352000  1
  Zr  Zr9  1  0.50000000  0.50000000  0.42648000  1
  Zr  Zr10  1  0.00000000  0.00000000  0.92648000  1
  Zr  Zr11  1  0.50000000  0.50000000  0.57352000  1
  H  H12  1  0.97120000  0.14550000  0.17540000  1
  H  H13  1  0.96320000  0.22760000  0.22870000  1
  H  H14  1  0.01440000  0.43200000  0.16670000  1
  H  H15  1  0.04470000  0.36400000  0.18690000  1
  H  H16  1  0.07170000  0.43810000  0.20050000  1
  H  H17  1  0.89820000  0.28660000  0.09280000  1
  H  H18  1  0.88580000  0.36690000  0.14670000  1
  H  H19  1  0.82310000  0.28300000  0.22810000  1
  H  H20  1  0.81640000  0.28970000  0.27510000  1
  H  H21  1  0.76960000  0.33640000  0.24690000  1
  H  H22  1  0.02880000  0.85450000  0.17540000  1
  H  H23  1  0.03680000  0.77240000  0.22870000  1
  H  H24  1  0.98560000  0.56800000  0.16670000  1
  H  H25  1  0.95530000  0.63600000  0.18690000  1
  H  H26  1  0.92830000  0.56190000  0.20050000  1
  H  H27  1  0.10180000  0.71340000  0.09280000  1
  H  H28  1  0.11420000  0.63310000  0.14670000  1
  H  H29  1  0.17690000  0.71700000  0.22810000  1
  H  H30  1  0.18360000  0.71030000  0.27510000  1
  H  H31  1  0.23040000  0.66360000  0.24690000  1
  H  H32  1  0.85450000  0.97120000  0.17540000  1
  H  H33  1  0.77240000  0.96320000  0.22870000  1
  H  H34  1  0.56800000  0.01440000  0.16670000  1
  H  H35  1  0.63600000  0.04470000  0.18690000  1
  H  H36  1  0.56190000  0.07170000  0.20050000  1
  H  H37  1  0.71340000  0.89820000  0.09280000  1
  H  H38  1  0.63310000  0.88580000  0.14670000  1
  H  H39  1  0.14550000  0.02880000  0.17540000  1
  H  H40  1  0.22760000  0.03680000  0.22870000  1
  H  H41  1  0.43200000  0.98560000  0.16670000  1
  H  H42  1  0.36400000  0.95530000  0.18690000  1
  H  H43  1  0.43810000  0.92830000  0.20050000  1
  H  H44  1  0.28660000  0.10180000  0.09280000  1
  H  H45  1  0.36690000  0.11420000  0.14670000  1
  H  H46  1  0.28300000  0.17690000  0.22810000  1
  H  H47  1  0.28970000  0.18360000  0.27510000  1
  H  H48  1  0.33640000  0.23040000  0.24690000  1
  H  H49  1  0.52880000  0.64550000  0.32460000  1
  H  H50  1  0.53680000  0.72760000  0.27130000  1
  H  H51  1  0.48560000  0.93200000  0.33333333  1
  H  H52  1  0.45530000  0.86400000  0.31310000  1
  H  H53  1  0.42830000  0.93810000  0.29950000  1
  H  H54  1  0.60180000  0.78660000  0.40720000  1
  H  H55  1  0.61420000  0.86690000  0.35330000  1
  H  H56  1  0.67690000  0.78300000  0.27190000  1
  H  H57  1  0.68360000  0.78970000  0.22490000  1
  H  H58  1  0.73040000  0.83640000  0.25310000  1
  H  H59  1  0.47120000  0.35450000  0.32460000  1
  H  H60  1  0.46320000  0.27240000  0.27130000  1
  H  H61  1  0.51440000  0.06800000  0.33333333  1
  H  H62  1  0.54470000  0.13600000  0.31310000  1
  H  H63  1  0.57170000  0.06190000  0.29950000  1
  H  H64  1  0.39820000  0.21340000  0.40720000  1
  H  H65  1  0.38580000  0.13310000  0.35330000  1
  H  H66  1  0.64550000  0.47120000  0.32460000  1
  H  H67  1  0.72760000  0.46320000  0.27130000  1
  H  H68  1  0.93200000  0.51440000  0.33333333  1
  H  H69  1  0.86400000  0.54470000  0.31310000  1
  H  H70  1  0.93810000  0.57170000  0.29950000  1
  H  H71  1  0.78660000  0.39820000  0.40720000  1
  H  H72  1  0.86690000  0.38580000  0.35330000  1
  H  H73  1  0.35450000  0.52880000  0.32460000  1
  H  H74  1  0.27240000  0.53680000  0.27130000  1
  H  H75  1  0.06800000  0.48560000  0.33333333  1
  H  H76  1  0.13600000  0.45530000  0.31310000  1
  H  H77  1  0.06190000  0.42830000  0.29950000  1
  H  H78  1  0.21340000  0.60180000  0.40720000  1
  H  H79  1  0.13310000  0.61420000  0.35330000  1
  H  H80  1  0.02880000  0.85450000  0.82460000  1
  H  H81  1  0.03680000  0.77240000  0.77130000  1
  H  H82  1  0.98560000  0.56800000  0.83330000  1
  H  H83  1  0.95530000  0.63600000  0.81310000  1
  H  H84  1  0.92830000  0.56190000  0.79950000  1
  H  H85  1  0.10180000  0.71340000  0.90720000  1
  H  H86  1  0.11420000  0.63310000  0.85330000  1
  H  H87  1  0.97120000  0.14550000  0.82460000  1
  H  H88  1  0.96320000  0.22760000  0.77130000  1
  H  H89  1  0.01440000  0.43200000  0.83330000  1
  H  H90  1  0.04470000  0.36400000  0.81310000  1
  H  H91  1  0.07170000  0.43810000  0.79950000  1
  H  H92  1  0.89820000  0.28660000  0.90720000  1
  H  H93  1  0.88580000  0.36690000  0.85330000  1
  H  H94  1  0.82310000  0.28300000  0.77190000  1
  H  H95  1  0.81640000  0.28970000  0.72490000  1
  H  H96  1  0.76960000  0.33640000  0.75310000  1
  H  H97  1  0.14550000  0.02880000  0.82460000  1
  H  H98  1  0.22760000  0.03680000  0.77130000  1
  H  H99  1  0.43200000  0.98560000  0.83330000  1
  H  H100  1  0.36400000  0.95530000  0.81310000  1
  H  H101  1  0.43810000  0.92830000  0.79950000  1
  H  H102  1  0.28660000  0.10180000  0.90720000  1
  H  H103  1  0.36690000  0.11420000  0.85330000  1
  H  H104  1  0.85450000  0.97120000  0.82460000  1
  H  H105  1  0.77240000  0.96320000  0.77130000  1
  H  H106  1  0.56800000  0.01440000  0.83330000  1
  H  H107  1  0.63600000  0.04470000  0.81310000  1
  H  H108  1  0.56190000  0.07170000  0.79950000  1
  H  H109  1  0.71340000  0.89820000  0.90720000  1
  H  H110  1  0.63310000  0.88580000  0.85330000  1
  H  H111  1  0.47120000  0.35450000  0.67540000  1
  H  H112  1  0.46320000  0.27240000  0.72870000  1
  H  H113  1  0.51440000  0.06800000  0.66666667  1
  H  H114  1  0.54470000  0.13600000  0.68690000  1
  H  H115  1  0.57170000  0.06190000  0.70050000  1
  H  H116  1  0.39820000  0.21340000  0.59280000  1
  H  H117  1  0.38580000  0.13310000  0.64670000  1
  H  H118  1  0.32310000  0.21700000  0.72810000  1
  H  H119  1  0.31640000  0.21030000  0.77510000  1
  H  H120  1  0.26960000  0.16360000  0.74690000  1
  H  H121  1  0.52880000  0.64550000  0.67540000  1
  H  H122  1  0.53680000  0.72760000  0.72870000  1
  H  H123  1  0.48560000  0.93200000  0.66666667  1
  H  H124  1  0.45530000  0.86400000  0.68690000  1
  H  H125  1  0.42830000  0.93810000  0.70050000  1
  H  H126  1  0.60180000  0.78660000  0.59280000  1
  H  H127  1  0.61420000  0.86690000  0.64670000  1
  H  H128  1  0.67690000  0.78300000  0.72810000  1
  H  H129  1  0.68360000  0.78970000  0.77510000  1
  H  H130  1  0.73040000  0.83640000  0.74690000  1
  H  H131  1  0.35450000  0.52880000  0.67540000  1
  H  H132  1  0.27240000  0.53680000  0.72870000  1
  H  H133  1  0.06800000  0.48560000  0.66666667  1
  H  H134  1  0.13600000  0.45530000  0.68690000  1
  H  H135  1  0.06190000  0.42830000  0.70050000  1
  H  H136  1  0.21340000  0.60180000  0.59280000  1
  H  H137  1  0.13310000  0.61420000  0.64670000  1
  H  H138  1  0.21700000  0.67690000  0.72810000  1
  H  H139  1  0.21030000  0.68360000  0.77510000  1
  H  H140  1  0.16360000  0.73040000  0.74690000  1
  H  H141  1  0.64550000  0.47120000  0.67540000  1
  H  H142  1  0.72760000  0.46320000  0.72870000  1
  H  H143  1  0.93200000  0.51440000  0.66666667  1
  H  H144  1  0.86400000  0.54470000  0.68690000  1
  H  H145  1  0.93810000  0.57170000  0.70050000  1
  H  H146  1  0.78660000  0.39820000  0.59280000  1
  H  H147  1  0.86690000  0.38580000  0.64670000  1
  C  C148  1  0.97460000  0.41510000  0.22320000  1
  C  C149  1  0.95460000  0.19070000  0.17050000  1
  C  C150  1  0.93970000  0.14910000  0.10160000  1
  C  C151  1  0.95110000  0.23860000  0.20230000  1
  C  C152  1  0.92140000  0.36560000  0.21950000  1
  C  C153  1  0.03160000  0.41200000  0.19150000  1
  C  C154  1  0.93380000  0.20940000  0.13140000  1
  C  C155  1  0.92740000  0.30520000  0.19020000  1
  C  C156  1  0.90970000  0.27540000  0.11930000  1
  C  C157  1  0.90470000  0.32260000  0.15130000  1
  C  C158  1  0.02540000  0.58490000  0.22320000  1
  C  C159  1  0.04540000  0.80930000  0.17050000  1
  C  C160  1  0.06030000  0.85090000  0.10160000  1
  C  C161  1  0.04890000  0.76140000  0.20230000  1
  C  C162  1  0.07860000  0.63440000  0.21950000  1
  C  C163  1  0.96840000  0.58800000  0.19150000  1
  C  C164  1  0.06620000  0.79060000  0.13140000  1
  C  C165  1  0.07260000  0.69480000  0.19020000  1
  C  C166  1  0.09030000  0.72460000  0.11930000  1
  C  C167  1  0.09530000  0.67740000  0.15130000  1
  C  C168  1  0.58490000  0.97460000  0.22320000  1
  C  C169  1  0.80930000  0.95460000  0.17050000  1
  C  C170  1  0.85090000  0.93970000  0.10160000  1
  C  C171  1  0.76140000  0.95110000  0.20230000  1
  C  C172  1  0.63440000  0.92140000  0.21950000  1
  C  C173  1  0.58800000  0.03160000  0.19150000  1
  C  C174  1  0.79060000  0.93380000  0.13140000  1
  C  C175  1  0.69480000  0.92740000  0.19020000  1
  C  C176  1  0.72460000  0.90970000  0.11930000  1
  C  C177  1  0.67740000  0.90470000  0.15130000  1
  C  C178  1  0.41510000  0.02540000  0.22320000  1
  C  C179  1  0.19070000  0.04540000  0.17050000  1
  C  C180  1  0.14910000  0.06030000  0.10160000  1
  C  C181  1  0.23860000  0.04890000  0.20230000  1
  C  C182  1  0.36560000  0.07860000  0.21950000  1
  C  C183  1  0.41200000  0.96840000  0.19150000  1
  C  C184  1  0.20940000  0.06620000  0.13140000  1
  C  C185  1  0.30520000  0.07260000  0.19020000  1
  C  C186  1  0.27540000  0.09030000  0.11930000  1
  C  C187  1  0.32260000  0.09530000  0.15130000  1
  C  C188  1  0.52540000  0.91510000  0.27680000  1
  C  C189  1  0.54540000  0.69070000  0.32950000  1
  C  C190  1  0.56030000  0.64910000  0.39840000  1
  C  C191  1  0.54890000  0.73860000  0.29770000  1
  C  C192  1  0.57860000  0.86560000  0.28050000  1
  C  C193  1  0.46840000  0.91200000  0.30850000  1
  C  C194  1  0.56620000  0.70940000  0.36860000  1
  C  C195  1  0.57260000  0.80520000  0.30980000  1
  C  C196  1  0.59030000  0.77540000  0.38070000  1
  C  C197  1  0.59530000  0.82260000  0.34870000  1
  C  C198  1  0.47460000  0.08490000  0.27680000  1
  C  C199  1  0.45460000  0.30930000  0.32950000  1
  C  C200  1  0.43970000  0.35090000  0.39840000  1
  C  C201  1  0.45110000  0.26140000  0.29770000  1
  C  C202  1  0.42140000  0.13440000  0.28050000  1
  C  C203  1  0.53160000  0.08800000  0.30850000  1
  C  C204  1  0.43380000  0.29060000  0.36860000  1
  C  C205  1  0.42740000  0.19480000  0.30980000  1
  C  C206  1  0.40970000  0.22460000  0.38070000  1
  C  C207  1  0.40470000  0.17740000  0.34870000  1
  C  C208  1  0.91510000  0.47460000  0.27680000  1
  C  C209  1  0.69070000  0.45460000  0.32950000  1
  C  C210  1  0.64910000  0.43970000  0.39840000  1
  C  C211  1  0.73860000  0.45110000  0.29770000  1
  C  C212  1  0.86560000  0.42140000  0.28050000  1
  C  C213  1  0.91200000  0.53160000  0.30850000  1
  C  C214  1  0.70940000  0.43380000  0.36860000  1
  C  C215  1  0.80520000  0.42740000  0.30980000  1
  C  C216  1  0.77540000  0.40970000  0.38070000  1
  C  C217  1  0.82260000  0.40470000  0.34870000  1
  C  C218  1  0.08490000  0.52540000  0.27680000  1
  C  C219  1  0.30930000  0.54540000  0.32950000  1
  C  C220  1  0.35090000  0.56030000  0.39840000  1
  C  C221  1  0.26140000  0.54890000  0.29770000  1
  C  C222  1  0.13440000  0.57860000  0.28050000  1
  C  C223  1  0.08800000  0.46840000  0.30850000  1
  C  C224  1  0.29060000  0.56620000  0.36860000  1
  C  C225  1  0.19480000  0.57260000  0.30980000  1
  C  C226  1  0.22460000  0.59030000  0.38070000  1
  C  C227  1  0.17740000  0.59530000  0.34870000  1
  C  C228  1  0.02540000  0.58490000  0.77680000  1
  C  C229  1  0.04540000  0.80930000  0.82950000  1
  C  C230  1  0.06030000  0.85090000  0.89840000  1
  C  C231  1  0.04890000  0.76140000  0.79770000  1
  C  C232  1  0.07860000  0.63440000  0.78050000  1
  C  C233  1  0.96840000  0.58800000  0.80850000  1
  C  C234  1  0.06620000  0.79060000  0.86860000  1
  C  C235  1  0.07260000  0.69480000  0.80980000  1
  C  C236  1  0.09030000  0.72460000  0.88070000  1
  C  C237  1  0.09530000  0.67740000  0.84870000  1
  C  C238  1  0.97460000  0.41510000  0.77680000  1
  C  C239  1  0.95460000  0.19070000  0.82950000  1
  C  C240  1  0.93970000  0.14910000  0.89840000  1
  C  C241  1  0.95110000  0.23860000  0.79770000  1
  C  C242  1  0.92140000  0.36560000  0.78050000  1
  C  C243  1  0.03160000  0.41200000  0.80850000  1
  C  C244  1  0.93380000  0.20940000  0.86860000  1
  C  C245  1  0.92740000  0.30520000  0.80980000  1
  C  C246  1  0.90970000  0.27540000  0.88070000  1
  C  C247  1  0.90470000  0.32260000  0.84870000  1
  C  C248  1  0.41510000  0.02540000  0.77680000  1
  C  C249  1  0.19070000  0.04540000  0.82950000  1
  C  C250  1  0.14910000  0.06030000  0.89840000  1
  C  C251  1  0.23860000  0.04890000  0.79770000  1
  C  C252  1  0.36560000  0.07860000  0.78050000  1
  C  C253  1  0.41200000  0.96840000  0.80850000  1
  C  C254  1  0.20940000  0.06620000  0.86860000  1
  C  C255  1  0.30520000  0.07260000  0.80980000  1
  C  C256  1  0.27540000  0.09030000  0.88070000  1
  C  C257  1  0.32260000  0.09530000  0.84870000  1
  C  C258  1  0.58490000  0.97460000  0.77680000  1
  C  C259  1  0.80930000  0.95460000  0.82950000  1
  C  C260  1  0.85090000  0.93970000  0.89840000  1
  C  C261  1  0.76140000  0.95110000  0.79770000  1
  C  C262  1  0.63440000  0.92140000  0.78050000  1
  C  C263  1  0.58800000  0.03160000  0.80850000  1
  C  C264  1  0.79060000  0.93380000  0.86860000  1
  C  C265  1  0.69480000  0.92740000  0.80980000  1
  C  C266  1  0.72460000  0.90970000  0.88070000  1
  C  C267  1  0.67740000  0.90470000  0.84870000  1
  C  C268  1  0.47460000  0.08490000  0.72320000  1
  C  C269  1  0.45460000  0.30930000  0.67050000  1
  C  C270  1  0.43970000  0.35090000  0.60160000  1
  C  C271  1  0.45110000  0.26140000  0.70230000  1
  C  C272  1  0.42140000  0.13440000  0.71950000  1
  C  C273  1  0.53160000  0.08800000  0.69150000  1
  C  C274  1  0.43380000  0.29060000  0.63140000  1
  C  C275  1  0.42740000  0.19480000  0.69020000  1
  C  C276  1  0.40970000  0.22460000  0.61930000  1
  C  C277  1  0.40470000  0.17740000  0.65130000  1
  C  C278  1  0.52540000  0.91510000  0.72320000  1
  C  C279  1  0.54540000  0.69070000  0.67050000  1
  C  C280  1  0.56030000  0.64910000  0.60160000  1
  C  C281  1  0.54890000  0.73860000  0.70230000  1
  C  C282  1  0.57860000  0.86560000  0.71950000  1
  C  C283  1  0.46840000  0.91200000  0.69150000  1
  C  C284  1  0.56620000  0.70940000  0.63140000  1
  C  C285  1  0.57260000  0.80520000  0.69020000  1
  C  C286  1  0.59030000  0.77540000  0.61930000  1
  C  C287  1  0.59530000  0.82260000  0.65130000  1
  C  C288  1  0.08490000  0.52540000  0.72320000  1
  C  C289  1  0.30930000  0.54540000  0.67050000  1
  C  C290  1  0.35090000  0.56030000  0.60160000  1
  C  C291  1  0.26140000  0.54890000  0.70230000  1
  C  C292  1  0.13440000  0.57860000  0.71950000  1
  C  C293  1  0.08800000  0.46840000  0.69150000  1
  C  C294  1  0.29060000  0.56620000  0.63140000  1
  C  C295  1  0.19480000  0.57260000  0.69020000  1
  C  C296  1  0.22460000  0.59030000  0.61930000  1
  C  C297  1  0.17740000  0.59530000  0.65130000  1
  C  C298  1  0.91510000  0.47460000  0.72320000  1
  C  C299  1  0.69070000  0.45460000  0.67050000  1
  C  C300  1  0.64910000  0.43970000  0.60160000  1
  C  C301  1  0.73860000  0.45110000  0.70230000  1
  C  C302  1  0.86560000  0.42140000  0.71950000  1
  C  C303  1  0.91200000  0.53160000  0.69150000  1
  C  C304  1  0.70940000  0.43380000  0.63140000  1
  C  C305  1  0.80520000  0.42740000  0.69020000  1
  C  C306  1  0.77540000  0.40970000  0.61930000  1
  C  C307  1  0.82260000  0.40470000  0.65130000  1
  C  C308  1  0.97207000  0.47207000  0.25000000  1
  C  C309  1  0.87070000  0.37070000  0.25000000  1
  C  C310  1  0.81490000  0.31490000  0.25000000  1
  C  C311  1  0.02793000  0.52793000  0.25000000  1
  C  C312  1  0.12930000  0.62930000  0.25000000  1
  C  C313  1  0.18510000  0.68510000  0.25000000  1
  C  C314  1  0.52793000  0.97207000  0.25000000  1
  C  C315  1  0.62930000  0.87070000  0.25000000  1
  C  C316  1  0.68510000  0.81490000  0.25000000  1
  C  C317  1  0.47207000  0.02793000  0.25000000  1
  C  C318  1  0.37070000  0.12930000  0.25000000  1
  C  C319  1  0.31490000  0.18510000  0.25000000  1
  C  C320  1  0.02793000  0.52793000  0.75000000  1
  C  C321  1  0.12930000  0.62930000  0.75000000  1
  C  C322  1  0.18510000  0.68510000  0.75000000  1
  C  C323  1  0.97207000  0.47207000  0.75000000  1
  C  C324  1  0.87070000  0.37070000  0.75000000  1
  C  C325  1  0.81490000  0.31490000  0.75000000  1
  C  C326  1  0.47207000  0.02793000  0.75000000  1
  C  C327  1  0.37070000  0.12930000  0.75000000  1
  C  C328  1  0.31490000  0.18510000  0.75000000  1
  C  C329  1  0.52793000  0.97207000  0.75000000  1
  C  C330  1  0.62930000  0.87070000  0.75000000  1
  C  C331  1  0.68510000  0.81490000  0.75000000  1
  O  O332  1  0.97160000  0.09180000  0.10890000  1
  O  O333  1  0.93900000  0.17290000  0.06060000  1
  O  O334  1  0.03700000  0.08360000  0.03570000  1
  O  O335  1  0.02840000  0.90820000  0.10890000  1
  O  O336  1  0.06100000  0.82710000  0.06060000  1
  O  O337  1  0.96300000  0.91640000  0.03570000  1
  O  O338  1  0.90820000  0.97160000  0.10890000  1
  O  O339  1  0.82710000  0.93900000  0.06060000  1
  O  O340  1  0.91640000  0.03700000  0.03570000  1
  O  O341  1  0.09180000  0.02840000  0.10890000  1
  O  O342  1  0.17290000  0.06100000  0.06060000  1
  O  O343  1  0.08360000  0.96300000  0.03570000  1
  O  O344  1  0.52840000  0.59180000  0.39110000  1
  O  O345  1  0.56100000  0.67290000  0.43940000  1
  O  O346  1  0.46300000  0.58360000  0.46430000  1
  O  O347  1  0.47160000  0.40820000  0.39110000  1
  O  O348  1  0.43900000  0.32710000  0.43940000  1
  O  O349  1  0.53700000  0.41640000  0.46430000  1
  O  O350  1  0.59180000  0.47160000  0.39110000  1
  O  O351  1  0.67290000  0.43900000  0.43940000  1
  O  O352  1  0.58360000  0.53700000  0.46430000  1
  O  O353  1  0.40820000  0.52840000  0.39110000  1
  O  O354  1  0.32710000  0.56100000  0.43940000  1
  O  O355  1  0.41640000  0.46300000  0.46430000  1
  O  O356  1  0.02840000  0.90820000  0.89110000  1
  O  O357  1  0.06100000  0.82710000  0.93940000  1
  O  O358  1  0.96300000  0.91640000  0.96430000  1
  O  O359  1  0.97160000  0.09180000  0.89110000  1
  O  O360  1  0.93900000  0.17290000  0.93940000  1
  O  O361  1  0.03700000  0.08360000  0.96430000  1
  O  O362  1  0.09180000  0.02840000  0.89110000  1
  O  O363  1  0.17290000  0.06100000  0.93940000  1
  O  O364  1  0.08360000  0.96300000  0.96430000  1
  O  O365  1  0.90820000  0.97160000  0.89110000  1
  O  O366  1  0.82710000  0.93900000  0.93940000  1
  O  O367  1  0.91640000  0.03700000  0.96430000  1
  O  O368  1  0.47160000  0.40820000  0.60890000  1
  O  O369  1  0.43900000  0.32710000  0.56060000  1
  O  O370  1  0.53700000  0.41640000  0.53570000  1
  O  O371  1  0.52840000  0.59180000  0.60890000  1
  O  O372  1  0.56100000  0.67290000  0.56060000  1
  O  O373  1  0.46300000  0.58360000  0.53570000  1
  O  O374  1  0.40820000  0.52840000  0.60890000  1
  O  O375  1  0.32710000  0.56100000  0.56060000  1
  O  O376  1  0.41640000  0.46300000  0.53570000  1
  O  O377  1  0.59180000  0.47160000  0.60890000  1
  O  O378  1  0.67290000  0.43900000  0.56060000  1
  O  O379  1  0.58360000  0.53700000  0.53570000  1
