# generated using pymatgen
data_Zr3H34(C23O6)2
_symmetry_space_group_name_H-M   'P 1'
_cell_length_a   18.90920000
_cell_length_b   18.90920000
_cell_length_c   33.22220000
_cell_angle_alpha   90.00000000
_cell_angle_beta   90.00000000
_cell_angle_gamma   90.00000000
_symmetry_Int_Tables_number   1
_chemical_formula_structural   Zr3H34(C23O6)2
_chemical_formula_sum   'Zr12 H136 C184 O48'
_cell_volume   11878.85822620
_cell_formula_units_Z   4
loop_
 _symmetry_equiv_pos_site_id
 _symmetry_equiv_pos_as_xyz
  1  'x, y, z'
loop_
 _atom_site_type_symbol
 _atom_site_label
 _atom_site_symmetry_multiplicity
 _atom_site_fract_x
 _atom_site_fract_y
 _atom_site_fract_z
 _atom_site_occupancy
  Zr  Zr0  1  0.12340000  0.04732000  0.00000000  1
  Zr  Zr1  1  0.87660000  0.95268000  0.00000000  1
  Zr  Zr2  1  0.95268000  0.12340000  0.00000000  1
  Zr  Zr3  1  0.04732000  0.87660000  0.00000000  1
  Zr  Zr4  1  0.37660000  0.54732000  0.50000000  1
  Zr  Zr5  1  0.62340000  0.45268000  0.50000000  1
  Zr  Zr6  1  0.54732000  0.62340000  0.50000000  1
  Zr  Zr7  1  0.45268000  0.37660000  0.50000000  1
  Zr  Zr8  1  0.00000000  0.00000000  0.07352000  1
  Zr  Zr9  1  0.50000000  0.50000000  0.42648000  1
  Zr  Zr10  1  0.00000000  0.00000000  0.92648000  1
  Zr  Zr11  1  0.50000000  0.50000000  0.57352000  1
  H  H12  1  0.96500000  0.14510000  0.17490000  1
  H  H13  1  0.95200000  0.22890000  0.22640000  1
  H  H14  1  0.01900000  0.43450000  0.16600000  1
  H  H15  1  0.04780000  0.36580000  0.18680000  1
  H  H16  1  0.07410000  0.44030000  0.20110000  1
  H  H17  1  0.90780000  0.28490000  0.09340000  1
  H  H18  1  0.89390000  0.37080000  0.14080000  1
  H  H19  1  0.81970000  0.27870000  0.22830000  1
  H  H20  1  0.81220000  0.28610000  0.27510000  1
  H  H21  1  0.76560000  0.33270000  0.24660000  1
  H  H22  1  0.03500000  0.85490000  0.17490000  1
  H  H23  1  0.04800000  0.77110000  0.22640000  1
  H  H24  1  0.98100000  0.56550000  0.16600000  1
  H  H25  1  0.95220000  0.63420000  0.18680000  1
  H  H26  1  0.92590000  0.55970000  0.20110000  1
  H  H27  1  0.09220000  0.71510000  0.09340000  1
  H  H28  1  0.10610000  0.62920000  0.14080000  1
  H  H29  1  0.18030000  0.72130000  0.22830000  1
  H  H30  1  0.18780000  0.71390000  0.27510000  1
  H  H31  1  0.23440000  0.66730000  0.24660000  1
  H  H32  1  0.85490000  0.96500000  0.17490000  1
  H  H33  1  0.77110000  0.95200000  0.22640000  1
  H  H34  1  0.56550000  0.01900000  0.16600000  1
  H  H35  1  0.63420000  0.04780000  0.18680000  1
  H  H36  1  0.55970000  0.07410000  0.20110000  1
  H  H37  1  0.71510000  0.90780000  0.09340000  1
  H  H38  1  0.62920000  0.89390000  0.14080000  1
  H  H39  1  0.72130000  0.81970000  0.22830000  1
  H  H40  1  0.71390000  0.81220000  0.27510000  1
  H  H41  1  0.66730000  0.76560000  0.24660000  1
  H  H42  1  0.14510000  0.03500000  0.17490000  1
  H  H43  1  0.22890000  0.04800000  0.22640000  1
  H  H44  1  0.43450000  0.98100000  0.16600000  1
  H  H45  1  0.36580000  0.95220000  0.18680000  1
  H  H46  1  0.44030000  0.92590000  0.20110000  1
  H  H47  1  0.28490000  0.09220000  0.09340000  1
  H  H48  1  0.37080000  0.10610000  0.14080000  1
  H  H49  1  0.53500000  0.64510000  0.32510000  1
  H  H50  1  0.54800000  0.72890000  0.27360000  1
  H  H51  1  0.48100000  0.93450000  0.33400000  1
  H  H52  1  0.45220000  0.86580000  0.31320000  1
  H  H53  1  0.42590000  0.94030000  0.29890000  1
  H  H54  1  0.59220000  0.78490000  0.40660000  1
  H  H55  1  0.60610000  0.87080000  0.35920000  1
  H  H56  1  0.46500000  0.35490000  0.32510000  1
  H  H57  1  0.45200000  0.27110000  0.27360000  1
  H  H58  1  0.51900000  0.06550000  0.33400000  1
  H  H59  1  0.54780000  0.13420000  0.31320000  1
  H  H60  1  0.57410000  0.05970000  0.29890000  1
  H  H61  1  0.40780000  0.21510000  0.40660000  1
  H  H62  1  0.39390000  0.12920000  0.35920000  1
  H  H63  1  0.31970000  0.22130000  0.27170000  1
  H  H64  1  0.31220000  0.21390000  0.22490000  1
  H  H65  1  0.26560000  0.16730000  0.25340000  1
  H  H66  1  0.64510000  0.46500000  0.32510000  1
  H  H67  1  0.72890000  0.45200000  0.27360000  1
  H  H68  1  0.93450000  0.51900000  0.33400000  1
  H  H69  1  0.86580000  0.54780000  0.31320000  1
  H  H70  1  0.94030000  0.57410000  0.29890000  1
  H  H71  1  0.78490000  0.40780000  0.40660000  1
  H  H72  1  0.87080000  0.39390000  0.35920000  1
  H  H73  1  0.35490000  0.53500000  0.32510000  1
  H  H74  1  0.27110000  0.54800000  0.27360000  1
  H  H75  1  0.06550000  0.48100000  0.33400000  1
  H  H76  1  0.13420000  0.45220000  0.31320000  1
  H  H77  1  0.05970000  0.42590000  0.29890000  1
  H  H78  1  0.21510000  0.59220000  0.40660000  1
  H  H79  1  0.12920000  0.60610000  0.35920000  1
  H  H80  1  0.03500000  0.85490000  0.82510000  1
  H  H81  1  0.04800000  0.77110000  0.77360000  1
  H  H82  1  0.98100000  0.56550000  0.83400000  1
  H  H83  1  0.95220000  0.63420000  0.81320000  1
  H  H84  1  0.92590000  0.55970000  0.79890000  1
  H  H85  1  0.09220000  0.71510000  0.90660000  1
  H  H86  1  0.10610000  0.62920000  0.85920000  1
  H  H87  1  0.18030000  0.72130000  0.77170000  1
  H  H88  1  0.18780000  0.71390000  0.72490000  1
  H  H89  1  0.23440000  0.66730000  0.75340000  1
  H  H90  1  0.96500000  0.14510000  0.82510000  1
  H  H91  1  0.95200000  0.22890000  0.77360000  1
  H  H92  1  0.01900000  0.43450000  0.83400000  1
  H  H93  1  0.04780000  0.36580000  0.81320000  1
  H  H94  1  0.07410000  0.44030000  0.79890000  1
  H  H95  1  0.90780000  0.28490000  0.90660000  1
  H  H96  1  0.89390000  0.37080000  0.85920000  1
  H  H97  1  0.81970000  0.27870000  0.77170000  1
  H  H98  1  0.81220000  0.28610000  0.72490000  1
  H  H99  1  0.76560000  0.33270000  0.75340000  1
  H  H100  1  0.14510000  0.03500000  0.82510000  1
  H  H101  1  0.22890000  0.04800000  0.77360000  1
  H  H102  1  0.43450000  0.98100000  0.83400000  1
  H  H103  1  0.36580000  0.95220000  0.81320000  1
  H  H104  1  0.44030000  0.92590000  0.79890000  1
  H  H105  1  0.28490000  0.09220000  0.90660000  1
  H  H106  1  0.37080000  0.10610000  0.85920000  1
  H  H107  1  0.27870000  0.18030000  0.77170000  1
  H  H108  1  0.28610000  0.18780000  0.72490000  1
  H  H109  1  0.33270000  0.23440000  0.75340000  1
  H  H110  1  0.85490000  0.96500000  0.82510000  1
  H  H111  1  0.77110000  0.95200000  0.77360000  1
  H  H112  1  0.56550000  0.01900000  0.83400000  1
  H  H113  1  0.63420000  0.04780000  0.81320000  1
  H  H114  1  0.55970000  0.07410000  0.79890000  1
  H  H115  1  0.71510000  0.90780000  0.90660000  1
  H  H116  1  0.62920000  0.89390000  0.85920000  1
  H  H117  1  0.72130000  0.81970000  0.77170000  1
  H  H118  1  0.71390000  0.81220000  0.72490000  1
  H  H119  1  0.66730000  0.76560000  0.75340000  1
  H  H120  1  0.46500000  0.35490000  0.67490000  1
  H  H121  1  0.45200000  0.27110000  0.72640000  1
  H  H122  1  0.51900000  0.06550000  0.66600000  1
  H  H123  1  0.54780000  0.13420000  0.68680000  1
  H  H124  1  0.57410000  0.05970000  0.70110000  1
  H  H125  1  0.40780000  0.21510000  0.59340000  1
  H  H126  1  0.39390000  0.12920000  0.64080000  1
  H  H127  1  0.53500000  0.64510000  0.67490000  1
  H  H128  1  0.54800000  0.72890000  0.72640000  1
  H  H129  1  0.48100000  0.93450000  0.66600000  1
  H  H130  1  0.45220000  0.86580000  0.68680000  1
  H  H131  1  0.42590000  0.94030000  0.70110000  1
  H  H132  1  0.59220000  0.78490000  0.59340000  1
  H  H133  1  0.60610000  0.87080000  0.64080000  1
  H  H134  1  0.35490000  0.53500000  0.67490000  1
  H  H135  1  0.27110000  0.54800000  0.72640000  1
  H  H136  1  0.06550000  0.48100000  0.66600000  1
  H  H137  1  0.13420000  0.45220000  0.68680000  1
  H  H138  1  0.05970000  0.42590000  0.70110000  1
  H  H139  1  0.21510000  0.59220000  0.59340000  1
  H  H140  1  0.12920000  0.60610000  0.64080000  1
  H  H141  1  0.64510000  0.46500000  0.67490000  1
  H  H142  1  0.72890000  0.45200000  0.72640000  1
  H  H143  1  0.93450000  0.51900000  0.66600000  1
  H  H144  1  0.86580000  0.54780000  0.68680000  1
  H  H145  1  0.94030000  0.57410000  0.70110000  1
  H  H146  1  0.78490000  0.40780000  0.59340000  1
  H  H147  1  0.87080000  0.39390000  0.64080000  1
  C  C148  1  0.97460000  0.41730000  0.22120000  1
  C  C149  1  0.95020000  0.19070000  0.16860000  1
  C  C150  1  0.93980000  0.15250000  0.09770000  1
  C  C151  1  0.94310000  0.24090000  0.19970000  1
  C  C152  1  0.92080000  0.36670000  0.22140000  1
  C  C153  1  0.03430000  0.41420000  0.19100000  1
  C  C154  1  0.93570000  0.20730000  0.12960000  1
  C  C155  1  0.92120000  0.31310000  0.18840000  1
  C  C156  1  0.91620000  0.27380000  0.12020000  1
  C  C157  1  0.90830000  0.32590000  0.14870000  1
  C  C158  1  0.02540000  0.58270000  0.22120000  1
  C  C159  1  0.04980000  0.80930000  0.16860000  1
  C  C160  1  0.06020000  0.84750000  0.09770000  1
  C  C161  1  0.05690000  0.75910000  0.19970000  1
  C  C162  1  0.07920000  0.63330000  0.22140000  1
  C  C163  1  0.96570000  0.58580000  0.19100000  1
  C  C164  1  0.06430000  0.79270000  0.12960000  1
  C  C165  1  0.07880000  0.68690000  0.18840000  1
  C  C166  1  0.08380000  0.72620000  0.12020000  1
  C  C167  1  0.09170000  0.67410000  0.14870000  1
  C  C168  1  0.58270000  0.97460000  0.22120000  1
  C  C169  1  0.80930000  0.95020000  0.16860000  1
  C  C170  1  0.84750000  0.93980000  0.09770000  1
  C  C171  1  0.75910000  0.94310000  0.19970000  1
  C  C172  1  0.63330000  0.92080000  0.22140000  1
  C  C173  1  0.58580000  0.03430000  0.19100000  1
  C  C174  1  0.79270000  0.93570000  0.12960000  1
  C  C175  1  0.68690000  0.92120000  0.18840000  1
  C  C176  1  0.72620000  0.91620000  0.12020000  1
  C  C177  1  0.67410000  0.90830000  0.14870000  1
  C  C178  1  0.41730000  0.02540000  0.22120000  1
  C  C179  1  0.19070000  0.04980000  0.16860000  1
  C  C180  1  0.15250000  0.06020000  0.09770000  1
  C  C181  1  0.24090000  0.05690000  0.19970000  1
  C  C182  1  0.36670000  0.07920000  0.22140000  1
  C  C183  1  0.41420000  0.96570000  0.19100000  1
  C  C184  1  0.20730000  0.06430000  0.12960000  1
  C  C185  1  0.31310000  0.07880000  0.18840000  1
  C  C186  1  0.27380000  0.08380000  0.12020000  1
  C  C187  1  0.32590000  0.09170000  0.14870000  1
  C  C188  1  0.52540000  0.91730000  0.27880000  1
  C  C189  1  0.54980000  0.69070000  0.33140000  1
  C  C190  1  0.56020000  0.65250000  0.40230000  1
  C  C191  1  0.55690000  0.74090000  0.30030000  1
  C  C192  1  0.57920000  0.86670000  0.27860000  1
  C  C193  1  0.46570000  0.91420000  0.30900000  1
  C  C194  1  0.56430000  0.70730000  0.37040000  1
  C  C195  1  0.57880000  0.81310000  0.31160000  1
  C  C196  1  0.58380000  0.77380000  0.37980000  1
  C  C197  1  0.59170000  0.82590000  0.35130000  1
  C  C198  1  0.47460000  0.08270000  0.27880000  1
  C  C199  1  0.45020000  0.30930000  0.33140000  1
  C  C200  1  0.43980000  0.34750000  0.40230000  1
  C  C201  1  0.44310000  0.25910000  0.30030000  1
  C  C202  1  0.42080000  0.13330000  0.27860000  1
  C  C203  1  0.53430000  0.08580000  0.30900000  1
  C  C204  1  0.43570000  0.29270000  0.37040000  1
  C  C205  1  0.42120000  0.18690000  0.31160000  1
  C  C206  1  0.41620000  0.22620000  0.37980000  1
  C  C207  1  0.40830000  0.17410000  0.35130000  1
  C  C208  1  0.91730000  0.47460000  0.27880000  1
  C  C209  1  0.69070000  0.45020000  0.33140000  1
  C  C210  1  0.65250000  0.43980000  0.40230000  1
  C  C211  1  0.74090000  0.44310000  0.30030000  1
  C  C212  1  0.86670000  0.42080000  0.27860000  1
  C  C213  1  0.91420000  0.53430000  0.30900000  1
  C  C214  1  0.70730000  0.43570000  0.37040000  1
  C  C215  1  0.81310000  0.42120000  0.31160000  1
  C  C216  1  0.77380000  0.41620000  0.37980000  1
  C  C217  1  0.82590000  0.40830000  0.35130000  1
  C  C218  1  0.08270000  0.52540000  0.27880000  1
  C  C219  1  0.30930000  0.54980000  0.33140000  1
  C  C220  1  0.34750000  0.56020000  0.40230000  1
  C  C221  1  0.25910000  0.55690000  0.30030000  1
  C  C222  1  0.13330000  0.57920000  0.27860000  1
  C  C223  1  0.08580000  0.46570000  0.30900000  1
  C  C224  1  0.29270000  0.56430000  0.37040000  1
  C  C225  1  0.18690000  0.57880000  0.31160000  1
  C  C226  1  0.22620000  0.58380000  0.37980000  1
  C  C227  1  0.17410000  0.59170000  0.35130000  1
  C  C228  1  0.02540000  0.58270000  0.77880000  1
  C  C229  1  0.04980000  0.80930000  0.83140000  1
  C  C230  1  0.06020000  0.84750000  0.90230000  1
  C  C231  1  0.05690000  0.75910000  0.80030000  1
  C  C232  1  0.07920000  0.63330000  0.77860000  1
  C  C233  1  0.96570000  0.58580000  0.80900000  1
  C  C234  1  0.06430000  0.79270000  0.87040000  1
  C  C235  1  0.07880000  0.68690000  0.81160000  1
  C  C236  1  0.08380000  0.72620000  0.87980000  1
  C  C237  1  0.09170000  0.67410000  0.85130000  1
  C  C238  1  0.97460000  0.41730000  0.77880000  1
  C  C239  1  0.95020000  0.19070000  0.83140000  1
  C  C240  1  0.93980000  0.15250000  0.90230000  1
  C  C241  1  0.94310000  0.24090000  0.80030000  1
  C  C242  1  0.92080000  0.36670000  0.77860000  1
  C  C243  1  0.03430000  0.41420000  0.80900000  1
  C  C244  1  0.93570000  0.20730000  0.87040000  1
  C  C245  1  0.92120000  0.31310000  0.81160000  1
  C  C246  1  0.91620000  0.27380000  0.87980000  1
  C  C247  1  0.90830000  0.32590000  0.85130000  1
  C  C248  1  0.41730000  0.02540000  0.77880000  1
  C  C249  1  0.19070000  0.04980000  0.83140000  1
  C  C250  1  0.15250000  0.06020000  0.90230000  1
  C  C251  1  0.24090000  0.05690000  0.80030000  1
  C  C252  1  0.36670000  0.07920000  0.77860000  1
  C  C253  1  0.41420000  0.96570000  0.80900000  1
  C  C254  1  0.20730000  0.06430000  0.87040000  1
  C  C255  1  0.31310000  0.07880000  0.81160000  1
  C  C256  1  0.27380000  0.08380000  0.87980000  1
  C  C257  1  0.32590000  0.09170000  0.85130000  1
  C  C258  1  0.58270000  0.97460000  0.77880000  1
  C  C259  1  0.80930000  0.95020000  0.83140000  1
  C  C260  1  0.84750000  0.93980000  0.90230000  1
  C  C261  1  0.75910000  0.94310000  0.80030000  1
  C  C262  1  0.63330000  0.92080000  0.77860000  1
  C  C263  1  0.58580000  0.03430000  0.80900000  1
  C  C264  1  0.79270000  0.93570000  0.87040000  1
  C  C265  1  0.68690000  0.92120000  0.81160000  1
  C  C266  1  0.72620000  0.91620000  0.87980000  1
  C  C267  1  0.67410000  0.90830000  0.85130000  1
  C  C268  1  0.47460000  0.08270000  0.72120000  1
  C  C269  1  0.45020000  0.30930000  0.66860000  1
  C  C270  1  0.43980000  0.34750000  0.59770000  1
  C  C271  1  0.44310000  0.25910000  0.69970000  1
  C  C272  1  0.42080000  0.13330000  0.72140000  1
  C  C273  1  0.53430000  0.08580000  0.69100000  1
  C  C274  1  0.43570000  0.29270000  0.62960000  1
  C  C275  1  0.42120000  0.18690000  0.68840000  1
  C  C276  1  0.41620000  0.22620000  0.62020000  1
  C  C277  1  0.40830000  0.17410000  0.64870000  1
  C  C278  1  0.52540000  0.91730000  0.72120000  1
  C  C279  1  0.54980000  0.69070000  0.66860000  1
  C  C280  1  0.56020000  0.65250000  0.59770000  1
  C  C281  1  0.55690000  0.74090000  0.69970000  1
  C  C282  1  0.57920000  0.86670000  0.72140000  1
  C  C283  1  0.46570000  0.91420000  0.69100000  1
  C  C284  1  0.56430000  0.70730000  0.62960000  1
  C  C285  1  0.57880000  0.81310000  0.68840000  1
  C  C286  1  0.58380000  0.77380000  0.62020000  1
  C  C287  1  0.59170000  0.82590000  0.64870000  1
  C  C288  1  0.08270000  0.52540000  0.72120000  1
  C  C289  1  0.30930000  0.54980000  0.66860000  1
  C  C290  1  0.34750000  0.56020000  0.59770000  1
  C  C291  1  0.25910000  0.55690000  0.69970000  1
  C  C292  1  0.13330000  0.57920000  0.72140000  1
  C  C293  1  0.08580000  0.46570000  0.69100000  1
  C  C294  1  0.29270000  0.56430000  0.62960000  1
  C  C295  1  0.18690000  0.57880000  0.68840000  1
  C  C296  1  0.22620000  0.58380000  0.62020000  1
  C  C297  1  0.17410000  0.59170000  0.64870000  1
  C  C298  1  0.91730000  0.47460000  0.72120000  1
  C  C299  1  0.69070000  0.45020000  0.66860000  1
  C  C300  1  0.65250000  0.43980000  0.59770000  1
  C  C301  1  0.74090000  0.44310000  0.69970000  1
  C  C302  1  0.86670000  0.42080000  0.72140000  1
  C  C303  1  0.91420000  0.53430000  0.69100000  1
  C  C304  1  0.70730000  0.43570000  0.62960000  1
  C  C305  1  0.81310000  0.42120000  0.68840000  1
  C  C306  1  0.77380000  0.41620000  0.62020000  1
  C  C307  1  0.82590000  0.40830000  0.64870000  1
  C  C308  1  0.97090000  0.47090000  0.25000000  1
  C  C309  1  0.86730000  0.36730000  0.25000000  1
  C  C310  1  0.81110000  0.31110000  0.25000000  1
  C  C311  1  0.02910000  0.52910000  0.25000000  1
  C  C312  1  0.13270000  0.63270000  0.25000000  1
  C  C313  1  0.18890000  0.68890000  0.25000000  1
  C  C314  1  0.52910000  0.97090000  0.25000000  1
  C  C315  1  0.63270000  0.86730000  0.25000000  1
  C  C316  1  0.68890000  0.81110000  0.25000000  1
  C  C317  1  0.47090000  0.02910000  0.25000000  1
  C  C318  1  0.36730000  0.13270000  0.25000000  1
  C  C319  1  0.31110000  0.18890000  0.25000000  1
  C  C320  1  0.02910000  0.52910000  0.75000000  1
  C  C321  1  0.13270000  0.63270000  0.75000000  1
  C  C322  1  0.18890000  0.68890000  0.75000000  1
  C  C323  1  0.97090000  0.47090000  0.75000000  1
  C  C324  1  0.86730000  0.36730000  0.75000000  1
  C  C325  1  0.81110000  0.31110000  0.75000000  1
  C  C326  1  0.47090000  0.02910000  0.75000000  1
  C  C327  1  0.36730000  0.13270000  0.75000000  1
  C  C328  1  0.31110000  0.18890000  0.75000000  1
  C  C329  1  0.52910000  0.97090000  0.75000000  1
  C  C330  1  0.63270000  0.86730000  0.75000000  1
  C  C331  1  0.68890000  0.81110000  0.75000000  1
  O  O332  1  0.96700000  0.09190000  0.10745000  1
  O  O333  1  0.93460000  0.17430000  0.06036000  1
  O  O334  1  0.03820000  0.08630000  0.03571000  1
  O  O335  1  0.03300000  0.90810000  0.10745000  1
  O  O336  1  0.06540000  0.82570000  0.06036000  1
  O  O337  1  0.96180000  0.91370000  0.03571000  1
  O  O338  1  0.90810000  0.96700000  0.10745000  1
  O  O339  1  0.82570000  0.93460000  0.06036000  1
  O  O340  1  0.91370000  0.03820000  0.03571000  1
  O  O341  1  0.09190000  0.03300000  0.10745000  1
  O  O342  1  0.17430000  0.06540000  0.06036000  1
  O  O343  1  0.08630000  0.96180000  0.03571000  1
  O  O344  1  0.53300000  0.59190000  0.39255000  1
  O  O345  1  0.56540000  0.67430000  0.43964000  1
  O  O346  1  0.46180000  0.58630000  0.46429000  1
  O  O347  1  0.46700000  0.40810000  0.39255000  1
  O  O348  1  0.43460000  0.32570000  0.43964000  1
  O  O349  1  0.53820000  0.41370000  0.46429000  1
  O  O350  1  0.59190000  0.46700000  0.39255000  1
  O  O351  1  0.67430000  0.43460000  0.43964000  1
  O  O352  1  0.58630000  0.53820000  0.46429000  1
  O  O353  1  0.40810000  0.53300000  0.39255000  1
  O  O354  1  0.32570000  0.56540000  0.43964000  1
  O  O355  1  0.41370000  0.46180000  0.46429000  1
  O  O356  1  0.03300000  0.90810000  0.89255000  1
  O  O357  1  0.06540000  0.82570000  0.93964000  1
  O  O358  1  0.96180000  0.91370000  0.96429000  1
  O  O359  1  0.96700000  0.09190000  0.89255000  1
  O  O360  1  0.93460000  0.17430000  0.93964000  1
  O  O361  1  0.03820000  0.08630000  0.96429000  1
  O  O362  1  0.09190000  0.03300000  0.89255000  1
  O  O363  1  0.17430000  0.06540000  0.93964000  1
  O  O364  1  0.08630000  0.96180000  0.96429000  1
  O  O365  1  0.90810000  0.96700000  0.89255000  1
  O  O366  1  0.82570000  0.93460000  0.93964000  1
  O  O367  1  0.91370000  0.03820000  0.96429000  1
  O  O368  1  0.46700000  0.40810000  0.60745000  1
  O  O369  1  0.43460000  0.32570000  0.56036000  1
  O  O370  1  0.53820000  0.41370000  0.53571000  1
  O  O371  1  0.53300000  0.59190000  0.60745000  1
  O  O372  1  0.56540000  0.67430000  0.56036000  1
  O  O373  1  0.46180000  0.58630000  0.53571000  1
  O  O374  1  0.40810000  0.53300000  0.60745000  1
  O  O375  1  0.32570000  0.56540000  0.56036000  1
  O  O376  1  0.41370000  0.46180000  0.53571000  1
  O  O377  1  0.59190000  0.46700000  0.60745000  1
  O  O378  1  0.67430000  0.43460000  0.56036000  1
  O  O379  1  0.58630000  0.53820000  0.53571000  1
