# generated using pymatgen
data_Zr3H34(C23O6)2
_symmetry_space_group_name_H-M   'P 1'
_cell_length_a   19.03700000
_cell_length_b   19.03700000
_cell_length_c   33.15900000
_cell_angle_alpha   90.00000000
_cell_angle_beta   90.00000000
_cell_angle_gamma   90.00000000
_symmetry_Int_Tables_number   1
_chemical_formula_structural   Zr3H34(C23O6)2
_chemical_formula_sum   'Zr12 H136 C184 O48'
_cell_volume   12017.06594867
_cell_formula_units_Z   4
loop_
 _symmetry_equiv_pos_site_id
 _symmetry_equiv_pos_as_xyz
  1  'x, y, z'
loop_
 _atom_site_type_symbol
 _atom_site_label
 _atom_site_symmetry_multiplicity
 _atom_site_fract_x
 _atom_site_fract_y
 _atom_site_fract_z
 _atom_site_occupancy
  Zr  Zr0  1  0.12389000  0.04540000  0.00000000  1
  Zr  Zr1  1  0.87611000  0.95460000  0.00000000  1
  Zr  Zr2  1  0.95460000  0.12389000  0.00000000  1
  Zr  Zr3  1  0.04540000  0.87611000  0.00000000  1
  Zr  Zr4  1  0.37611000  0.54540000  0.50000000  1
  Zr  Zr5  1  0.62389000  0.45460000  0.50000000  1
  Zr  Zr6  1  0.54540000  0.62389000  0.50000000  1
  Zr  Zr7  1  0.45460000  0.37611000  0.50000000  1
  Zr  Zr8  1  0.00000000  0.00000000  0.07351000  1
  Zr  Zr9  1  0.50000000  0.50000000  0.42649000  1
  Zr  Zr10  1  0.00000000  0.00000000  0.92649000  1
  Zr  Zr11  1  0.50000000  0.50000000  0.57351000  1
  H  H12  1  0.97720000  0.14930000  0.17540000  1
  H  H13  1  0.96780000  0.23040000  0.22880000  1
  H  H14  1  0.06380000  0.45230000  0.19470000  1
  H  H15  1  0.05590000  0.37050000  0.19220000  1
  H  H16  1  0.01090000  0.41880000  0.16400000  1
  H  H17  1  0.89840000  0.28560000  0.09160000  1
  H  H18  1  0.88380000  0.36370000  0.14650000  1
  H  H19  1  0.82220000  0.28110000  0.22840000  1
  H  H20  1  0.81440000  0.28890000  0.27530000  1
  H  H21  1  0.76840000  0.33500000  0.24630000  1
  H  H22  1  0.02280000  0.85070000  0.17540000  1
  H  H23  1  0.03220000  0.76960000  0.22880000  1
  H  H24  1  0.93620000  0.54770000  0.19470000  1
  H  H25  1  0.94410000  0.62950000  0.19220000  1
  H  H26  1  0.98910000  0.58120000  0.16400000  1
  H  H27  1  0.10160000  0.71440000  0.09160000  1
  H  H28  1  0.11620000  0.63630000  0.14650000  1
  H  H29  1  0.85070000  0.97720000  0.17540000  1
  H  H30  1  0.76960000  0.96780000  0.22880000  1
  H  H31  1  0.54770000  0.06380000  0.19470000  1
  H  H32  1  0.62950000  0.05590000  0.19220000  1
  H  H33  1  0.58120000  0.01090000  0.16400000  1
  H  H34  1  0.71440000  0.89840000  0.09160000  1
  H  H35  1  0.63630000  0.88380000  0.14650000  1
  H  H36  1  0.14930000  0.02280000  0.17540000  1
  H  H37  1  0.23040000  0.03220000  0.22880000  1
  H  H38  1  0.45230000  0.93620000  0.19470000  1
  H  H39  1  0.37050000  0.94410000  0.19220000  1
  H  H40  1  0.41880000  0.98910000  0.16400000  1
  H  H41  1  0.28560000  0.10160000  0.09160000  1
  H  H42  1  0.36370000  0.11620000  0.14650000  1
  H  H43  1  0.52280000  0.64930000  0.32460000  1
  H  H44  1  0.53220000  0.73040000  0.27120000  1
  H  H45  1  0.43620000  0.95230000  0.30530000  1
  H  H46  1  0.44410000  0.87050000  0.30780000  1
  H  H47  1  0.48910000  0.91880000  0.33600000  1
  H  H48  1  0.60160000  0.78560000  0.40840000  1
  H  H49  1  0.61620000  0.86370000  0.35350000  1
  H  H50  1  0.67780000  0.78110000  0.27160000  1
  H  H51  1  0.68560000  0.78890000  0.22470000  1
  H  H52  1  0.73160000  0.83500000  0.25370000  1
  H  H53  1  0.47720000  0.35070000  0.32460000  1
  H  H54  1  0.46780000  0.26960000  0.27120000  1
  H  H55  1  0.56380000  0.04770000  0.30530000  1
  H  H56  1  0.55590000  0.12950000  0.30780000  1
  H  H57  1  0.51090000  0.08120000  0.33600000  1
  H  H58  1  0.39840000  0.21440000  0.40840000  1
  H  H59  1  0.38380000  0.13630000  0.35350000  1
  H  H60  1  0.32220000  0.21890000  0.27160000  1
  H  H61  1  0.31440000  0.21110000  0.22470000  1
  H  H62  1  0.26840000  0.16500000  0.25370000  1
  H  H63  1  0.64930000  0.47720000  0.32460000  1
  H  H64  1  0.73040000  0.46780000  0.27120000  1
  H  H65  1  0.95230000  0.56380000  0.30530000  1
  H  H66  1  0.87050000  0.55590000  0.30780000  1
  H  H67  1  0.91880000  0.51090000  0.33600000  1
  H  H68  1  0.78560000  0.39840000  0.40840000  1
  H  H69  1  0.86370000  0.38380000  0.35350000  1
  H  H70  1  0.35070000  0.52280000  0.32460000  1
  H  H71  1  0.26960000  0.53220000  0.27120000  1
  H  H72  1  0.04770000  0.43620000  0.30530000  1
  H  H73  1  0.12950000  0.44410000  0.30780000  1
  H  H74  1  0.08120000  0.48910000  0.33600000  1
  H  H75  1  0.21440000  0.60160000  0.40840000  1
  H  H76  1  0.13630000  0.61620000  0.35350000  1
  H  H77  1  0.21890000  0.67780000  0.27160000  1
  H  H78  1  0.21110000  0.68560000  0.22470000  1
  H  H79  1  0.16500000  0.73160000  0.25370000  1
  H  H80  1  0.02280000  0.85070000  0.82460000  1
  H  H81  1  0.03220000  0.76960000  0.77120000  1
  H  H82  1  0.93620000  0.54770000  0.80530000  1
  H  H83  1  0.94410000  0.62950000  0.80780000  1
  H  H84  1  0.98910000  0.58120000  0.83600000  1
  H  H85  1  0.10160000  0.71440000  0.90840000  1
  H  H86  1  0.11620000  0.63630000  0.85350000  1
  H  H87  1  0.97720000  0.14930000  0.82460000  1
  H  H88  1  0.96780000  0.23040000  0.77120000  1
  H  H89  1  0.06380000  0.45230000  0.80530000  1
  H  H90  1  0.05590000  0.37050000  0.80780000  1
  H  H91  1  0.01090000  0.41880000  0.83600000  1
  H  H92  1  0.89840000  0.28560000  0.90840000  1
  H  H93  1  0.88380000  0.36370000  0.85350000  1
  H  H94  1  0.82220000  0.28110000  0.77160000  1
  H  H95  1  0.81440000  0.28890000  0.72470000  1
  H  H96  1  0.76840000  0.33500000  0.75370000  1
  H  H97  1  0.14930000  0.02280000  0.82460000  1
  H  H98  1  0.23040000  0.03220000  0.77120000  1
  H  H99  1  0.45230000  0.93620000  0.80530000  1
  H  H100  1  0.37050000  0.94410000  0.80780000  1
  H  H101  1  0.41880000  0.98910000  0.83600000  1
  H  H102  1  0.28560000  0.10160000  0.90840000  1
  H  H103  1  0.36370000  0.11620000  0.85350000  1
  H  H104  1  0.28110000  0.17780000  0.77160000  1
  H  H105  1  0.28890000  0.18560000  0.72470000  1
  H  H106  1  0.33500000  0.23160000  0.75370000  1
  H  H107  1  0.85070000  0.97720000  0.82460000  1
  H  H108  1  0.76960000  0.96780000  0.77120000  1
  H  H109  1  0.54770000  0.06380000  0.80530000  1
  H  H110  1  0.62950000  0.05590000  0.80780000  1
  H  H111  1  0.58120000  0.01090000  0.83600000  1
  H  H112  1  0.71440000  0.89840000  0.90840000  1
  H  H113  1  0.63630000  0.88380000  0.85350000  1
  H  H114  1  0.47720000  0.35070000  0.67540000  1
  H  H115  1  0.46780000  0.26960000  0.72880000  1
  H  H116  1  0.56380000  0.04770000  0.69470000  1
  H  H117  1  0.55590000  0.12950000  0.69220000  1
  H  H118  1  0.51090000  0.08120000  0.66400000  1
  H  H119  1  0.39840000  0.21440000  0.59160000  1
  H  H120  1  0.38380000  0.13630000  0.64650000  1
  H  H121  1  0.52280000  0.64930000  0.67540000  1
  H  H122  1  0.53220000  0.73040000  0.72880000  1
  H  H123  1  0.43620000  0.95230000  0.69470000  1
  H  H124  1  0.44410000  0.87050000  0.69220000  1
  H  H125  1  0.48910000  0.91880000  0.66400000  1
  H  H126  1  0.60160000  0.78560000  0.59160000  1
  H  H127  1  0.61620000  0.86370000  0.64650000  1
  H  H128  1  0.67780000  0.78110000  0.72840000  1
  H  H129  1  0.68560000  0.78890000  0.77530000  1
  H  H130  1  0.73160000  0.83500000  0.74630000  1
  H  H131  1  0.35070000  0.52280000  0.67540000  1
  H  H132  1  0.26960000  0.53220000  0.72880000  1
  H  H133  1  0.04770000  0.43620000  0.69470000  1
  H  H134  1  0.12950000  0.44410000  0.69220000  1
  H  H135  1  0.08120000  0.48910000  0.66400000  1
  H  H136  1  0.21440000  0.60160000  0.59160000  1
  H  H137  1  0.13630000  0.61620000  0.64650000  1
  H  H138  1  0.21890000  0.67780000  0.72840000  1
  H  H139  1  0.21110000  0.68560000  0.77530000  1
  H  H140  1  0.16500000  0.73160000  0.74630000  1
  H  H141  1  0.64930000  0.47720000  0.67540000  1
  H  H142  1  0.73040000  0.46780000  0.72880000  1
  H  H143  1  0.95230000  0.56380000  0.69470000  1
  H  H144  1  0.87050000  0.55590000  0.69220000  1
  H  H145  1  0.91880000  0.51090000  0.66400000  1
  H  H146  1  0.78560000  0.39840000  0.59160000  1
  H  H147  1  0.86370000  0.38380000  0.64650000  1
  C  C148  1  0.97410000  0.41690000  0.22190000  1
  C  C149  1  0.95870000  0.19380000  0.17060000  1
  C  C150  1  0.94100000  0.15400000  0.09990000  1
  C  C151  1  0.95420000  0.24090000  0.20250000  1
  C  C152  1  0.92190000  0.36560000  0.22040000  1
  C  C153  1  0.03140000  0.41440000  0.19030000  1
  C  C154  1  0.93660000  0.21040000  0.13170000  1
  C  C155  1  0.92690000  0.30600000  0.19050000  1
  C  C156  1  0.91020000  0.27480000  0.11810000  1
  C  C157  1  0.90440000  0.32020000  0.15110000  1
  C  C158  1  0.02590000  0.58310000  0.22190000  1
  C  C159  1  0.04130000  0.80620000  0.17060000  1
  C  C160  1  0.05900000  0.84600000  0.09990000  1
  C  C161  1  0.04580000  0.75910000  0.20250000  1
  C  C162  1  0.07810000  0.63440000  0.22040000  1
  C  C163  1  0.96860000  0.58560000  0.19030000  1
  C  C164  1  0.06340000  0.78960000  0.13170000  1
  C  C165  1  0.07310000  0.69400000  0.19050000  1
  C  C166  1  0.08980000  0.72520000  0.11810000  1
  C  C167  1  0.09560000  0.67980000  0.15110000  1
  C  C168  1  0.58310000  0.97410000  0.22190000  1
  C  C169  1  0.80620000  0.95870000  0.17060000  1
  C  C170  1  0.84600000  0.94100000  0.09990000  1
  C  C171  1  0.75910000  0.95420000  0.20250000  1
  C  C172  1  0.63440000  0.92190000  0.22040000  1
  C  C173  1  0.58560000  0.03140000  0.19030000  1
  C  C174  1  0.78960000  0.93660000  0.13170000  1
  C  C175  1  0.69400000  0.92690000  0.19050000  1
  C  C176  1  0.72520000  0.91020000  0.11810000  1
  C  C177  1  0.67980000  0.90440000  0.15110000  1
  C  C178  1  0.41690000  0.02590000  0.22190000  1
  C  C179  1  0.19380000  0.04130000  0.17060000  1
  C  C180  1  0.15400000  0.05900000  0.09990000  1
  C  C181  1  0.24090000  0.04580000  0.20250000  1
  C  C182  1  0.36560000  0.07810000  0.22040000  1
  C  C183  1  0.41440000  0.96860000  0.19030000  1
  C  C184  1  0.21040000  0.06340000  0.13170000  1
  C  C185  1  0.30600000  0.07310000  0.19050000  1
  C  C186  1  0.27480000  0.08980000  0.11810000  1
  C  C187  1  0.32020000  0.09560000  0.15110000  1
  C  C188  1  0.52590000  0.91690000  0.27810000  1
  C  C189  1  0.54130000  0.69380000  0.32940000  1
  C  C190  1  0.55900000  0.65400000  0.40010000  1
  C  C191  1  0.54580000  0.74090000  0.29750000  1
  C  C192  1  0.57810000  0.86560000  0.27960000  1
  C  C193  1  0.46860000  0.91440000  0.30970000  1
  C  C194  1  0.56340000  0.71040000  0.36830000  1
  C  C195  1  0.57310000  0.80600000  0.30950000  1
  C  C196  1  0.58980000  0.77480000  0.38190000  1
  C  C197  1  0.59560000  0.82020000  0.34890000  1
  C  C198  1  0.47410000  0.08310000  0.27810000  1
  C  C199  1  0.45870000  0.30620000  0.32940000  1
  C  C200  1  0.44100000  0.34600000  0.40010000  1
  C  C201  1  0.45420000  0.25910000  0.29750000  1
  C  C202  1  0.42190000  0.13440000  0.27960000  1
  C  C203  1  0.53140000  0.08560000  0.30970000  1
  C  C204  1  0.43660000  0.28960000  0.36830000  1
  C  C205  1  0.42690000  0.19400000  0.30950000  1
  C  C206  1  0.41020000  0.22520000  0.38190000  1
  C  C207  1  0.40440000  0.17980000  0.34890000  1
  C  C208  1  0.91690000  0.47410000  0.27810000  1
  C  C209  1  0.69380000  0.45870000  0.32940000  1
  C  C210  1  0.65400000  0.44100000  0.40010000  1
  C  C211  1  0.74090000  0.45420000  0.29750000  1
  C  C212  1  0.86560000  0.42190000  0.27960000  1
  C  C213  1  0.91440000  0.53140000  0.30970000  1
  C  C214  1  0.71040000  0.43660000  0.36830000  1
  C  C215  1  0.80600000  0.42690000  0.30950000  1
  C  C216  1  0.77480000  0.41020000  0.38190000  1
  C  C217  1  0.82020000  0.40440000  0.34890000  1
  C  C218  1  0.08310000  0.52590000  0.27810000  1
  C  C219  1  0.30620000  0.54130000  0.32940000  1
  C  C220  1  0.34600000  0.55900000  0.40010000  1
  C  C221  1  0.25910000  0.54580000  0.29750000  1
  C  C222  1  0.13440000  0.57810000  0.27960000  1
  C  C223  1  0.08560000  0.46860000  0.30970000  1
  C  C224  1  0.28960000  0.56340000  0.36830000  1
  C  C225  1  0.19400000  0.57310000  0.30950000  1
  C  C226  1  0.22520000  0.58980000  0.38190000  1
  C  C227  1  0.17980000  0.59560000  0.34890000  1
  C  C228  1  0.02590000  0.58310000  0.77810000  1
  C  C229  1  0.04130000  0.80620000  0.82940000  1
  C  C230  1  0.05900000  0.84600000  0.90010000  1
  C  C231  1  0.04580000  0.75910000  0.79750000  1
  C  C232  1  0.07810000  0.63440000  0.77960000  1
  C  C233  1  0.96860000  0.58560000  0.80970000  1
  C  C234  1  0.06340000  0.78960000  0.86830000  1
  C  C235  1  0.07310000  0.69400000  0.80950000  1
  C  C236  1  0.08980000  0.72520000  0.88190000  1
  C  C237  1  0.09560000  0.67980000  0.84890000  1
  C  C238  1  0.97410000  0.41690000  0.77810000  1
  C  C239  1  0.95870000  0.19380000  0.82940000  1
  C  C240  1  0.94100000  0.15400000  0.90010000  1
  C  C241  1  0.95420000  0.24090000  0.79750000  1
  C  C242  1  0.92190000  0.36560000  0.77960000  1
  C  C243  1  0.03140000  0.41440000  0.80970000  1
  C  C244  1  0.93660000  0.21040000  0.86830000  1
  C  C245  1  0.92690000  0.30600000  0.80950000  1
  C  C246  1  0.91020000  0.27480000  0.88190000  1
  C  C247  1  0.90440000  0.32020000  0.84890000  1
  C  C248  1  0.41690000  0.02590000  0.77810000  1
  C  C249  1  0.19380000  0.04130000  0.82940000  1
  C  C250  1  0.15400000  0.05900000  0.90010000  1
  C  C251  1  0.24090000  0.04580000  0.79750000  1
  C  C252  1  0.36560000  0.07810000  0.77960000  1
  C  C253  1  0.41440000  0.96860000  0.80970000  1
  C  C254  1  0.21040000  0.06340000  0.86830000  1
  C  C255  1  0.30600000  0.07310000  0.80950000  1
  C  C256  1  0.27480000  0.08980000  0.88190000  1
  C  C257  1  0.32020000  0.09560000  0.84890000  1
  C  C258  1  0.58310000  0.97410000  0.77810000  1
  C  C259  1  0.80620000  0.95870000  0.82940000  1
  C  C260  1  0.84600000  0.94100000  0.90010000  1
  C  C261  1  0.75910000  0.95420000  0.79750000  1
  C  C262  1  0.63440000  0.92190000  0.77960000  1
  C  C263  1  0.58560000  0.03140000  0.80970000  1
  C  C264  1  0.78960000  0.93660000  0.86830000  1
  C  C265  1  0.69400000  0.92690000  0.80950000  1
  C  C266  1  0.72520000  0.91020000  0.88190000  1
  C  C267  1  0.67980000  0.90440000  0.84890000  1
  C  C268  1  0.47410000  0.08310000  0.72190000  1
  C  C269  1  0.45870000  0.30620000  0.67060000  1
  C  C270  1  0.44100000  0.34600000  0.59990000  1
  C  C271  1  0.45420000  0.25910000  0.70250000  1
  C  C272  1  0.42190000  0.13440000  0.72040000  1
  C  C273  1  0.53140000  0.08560000  0.69030000  1
  C  C274  1  0.43660000  0.28960000  0.63170000  1
  C  C275  1  0.42690000  0.19400000  0.69050000  1
  C  C276  1  0.41020000  0.22520000  0.61810000  1
  C  C277  1  0.40440000  0.17980000  0.65110000  1
  C  C278  1  0.52590000  0.91690000  0.72190000  1
  C  C279  1  0.54130000  0.69380000  0.67060000  1
  C  C280  1  0.55900000  0.65400000  0.59990000  1
  C  C281  1  0.54580000  0.74090000  0.70250000  1
  C  C282  1  0.57810000  0.86560000  0.72040000  1
  C  C283  1  0.46860000  0.91440000  0.69030000  1
  C  C284  1  0.56340000  0.71040000  0.63170000  1
  C  C285  1  0.57310000  0.80600000  0.69050000  1
  C  C286  1  0.58980000  0.77480000  0.61810000  1
  C  C287  1  0.59560000  0.82020000  0.65110000  1
  C  C288  1  0.08310000  0.52590000  0.72190000  1
  C  C289  1  0.30620000  0.54130000  0.67060000  1
  C  C290  1  0.34600000  0.55900000  0.59990000  1
  C  C291  1  0.25910000  0.54580000  0.70250000  1
  C  C292  1  0.13440000  0.57810000  0.72040000  1
  C  C293  1  0.08560000  0.46860000  0.69030000  1
  C  C294  1  0.28960000  0.56340000  0.63170000  1
  C  C295  1  0.19400000  0.57310000  0.69050000  1
  C  C296  1  0.22520000  0.58980000  0.61810000  1
  C  C297  1  0.17980000  0.59560000  0.65110000  1
  C  C298  1  0.91690000  0.47410000  0.72190000  1
  C  C299  1  0.69380000  0.45870000  0.67060000  1
  C  C300  1  0.65400000  0.44100000  0.59990000  1
  C  C301  1  0.74090000  0.45420000  0.70250000  1
  C  C302  1  0.86560000  0.42190000  0.72040000  1
  C  C303  1  0.91440000  0.53140000  0.69030000  1
  C  C304  1  0.71040000  0.43660000  0.63170000  1
  C  C305  1  0.80600000  0.42690000  0.69050000  1
  C  C306  1  0.77480000  0.41020000  0.61810000  1
  C  C307  1  0.82020000  0.40440000  0.65110000  1
  C  C308  1  0.97210000  0.47210000  0.25000000  1
  C  C309  1  0.86940000  0.36940000  0.25000000  1
  C  C310  1  0.81360000  0.31360000  0.25000000  1
  C  C311  1  0.02790000  0.52790000  0.25000000  1
  C  C312  1  0.13060000  0.63060000  0.25000000  1
  C  C313  1  0.18640000  0.68640000  0.25000000  1
  C  C314  1  0.52790000  0.97210000  0.25000000  1
  C  C315  1  0.63060000  0.86940000  0.25000000  1
  C  C316  1  0.68640000  0.81360000  0.25000000  1
  C  C317  1  0.47210000  0.02790000  0.25000000  1
  C  C318  1  0.36940000  0.13060000  0.25000000  1
  C  C319  1  0.31360000  0.18640000  0.25000000  1
  C  C320  1  0.02790000  0.52790000  0.75000000  1
  C  C321  1  0.13060000  0.63060000  0.75000000  1
  C  C322  1  0.18640000  0.68640000  0.75000000  1
  C  C323  1  0.97210000  0.47210000  0.75000000  1
  C  C324  1  0.86940000  0.36940000  0.75000000  1
  C  C325  1  0.81360000  0.31360000  0.75000000  1
  C  C326  1  0.47210000  0.02790000  0.75000000  1
  C  C327  1  0.36940000  0.13060000  0.75000000  1
  C  C328  1  0.31360000  0.18640000  0.75000000  1
  C  C329  1  0.52790000  0.97210000  0.75000000  1
  C  C330  1  0.63060000  0.86940000  0.75000000  1
  C  C331  1  0.68640000  0.81360000  0.75000000  1
  O  O332  1  0.97110000  0.09360000  0.10890000  1
  O  O333  1  0.93870000  0.17510000  0.06020000  1
  O  O334  1  0.03960000  0.08600000  0.03580000  1
  O  O335  1  0.02890000  0.90640000  0.10890000  1
  O  O336  1  0.06130000  0.82490000  0.06020000  1
  O  O337  1  0.96040000  0.91400000  0.03580000  1
  O  O338  1  0.90640000  0.97110000  0.10890000  1
  O  O339  1  0.82490000  0.93870000  0.06020000  1
  O  O340  1  0.91400000  0.03960000  0.03580000  1
  O  O341  1  0.09360000  0.02890000  0.10890000  1
  O  O342  1  0.17510000  0.06130000  0.06020000  1
  O  O343  1  0.08600000  0.96040000  0.03580000  1
  O  O344  1  0.52890000  0.59360000  0.39110000  1
  O  O345  1  0.56130000  0.67510000  0.43980000  1
  O  O346  1  0.46040000  0.58600000  0.46420000  1
  O  O347  1  0.47110000  0.40640000  0.39110000  1
  O  O348  1  0.43870000  0.32490000  0.43980000  1
  O  O349  1  0.53960000  0.41400000  0.46420000  1
  O  O350  1  0.59360000  0.47110000  0.39110000  1
  O  O351  1  0.67510000  0.43870000  0.43980000  1
  O  O352  1  0.58600000  0.53960000  0.46420000  1
  O  O353  1  0.40640000  0.52890000  0.39110000  1
  O  O354  1  0.32490000  0.56130000  0.43980000  1
  O  O355  1  0.41400000  0.46040000  0.46420000  1
  O  O356  1  0.02890000  0.90640000  0.89110000  1
  O  O357  1  0.06130000  0.82490000  0.93980000  1
  O  O358  1  0.96040000  0.91400000  0.96420000  1
  O  O359  1  0.97110000  0.09360000  0.89110000  1
  O  O360  1  0.93870000  0.17510000  0.93980000  1
  O  O361  1  0.03960000  0.08600000  0.96420000  1
  O  O362  1  0.09360000  0.02890000  0.89110000  1
  O  O363  1  0.17510000  0.06130000  0.93980000  1
  O  O364  1  0.08600000  0.96040000  0.96420000  1
  O  O365  1  0.90640000  0.97110000  0.89110000  1
  O  O366  1  0.82490000  0.93870000  0.93980000  1
  O  O367  1  0.91400000  0.03960000  0.96420000  1
  O  O368  1  0.47110000  0.40640000  0.60890000  1
  O  O369  1  0.43870000  0.32490000  0.56020000  1
  O  O370  1  0.53960000  0.41400000  0.53580000  1
  O  O371  1  0.52890000  0.59360000  0.60890000  1
  O  O372  1  0.56130000  0.67510000  0.56020000  1
  O  O373  1  0.46040000  0.58600000  0.53580000  1
  O  O374  1  0.40640000  0.52890000  0.60890000  1
  O  O375  1  0.32490000  0.56130000  0.56020000  1
  O  O376  1  0.41400000  0.46040000  0.53580000  1
  O  O377  1  0.59360000  0.47110000  0.60890000  1
  O  O378  1  0.67510000  0.43870000  0.56020000  1
  O  O379  1  0.58600000  0.53960000  0.53580000  1
