# generated using pymatgen
data_Zr3H34(C23O6)2
_symmetry_space_group_name_H-M   'P 1'
_cell_length_a   19.44810000
_cell_length_b   19.44810000
_cell_length_c   32.57500000
_cell_angle_alpha   90.00000000
_cell_angle_beta   90.00000000
_cell_angle_gamma   90.00000000
_symmetry_Int_Tables_number   1
_chemical_formula_structural   Zr3H34(C23O6)2
_chemical_formula_sum   'Zr12 H136 C184 O48'
_cell_volume   12320.79643685
_cell_formula_units_Z   4
loop_
 _symmetry_equiv_pos_site_id
 _symmetry_equiv_pos_as_xyz
  1  'x, y, z'
loop_
 _atom_site_type_symbol
 _atom_site_label
 _atom_site_symmetry_multiplicity
 _atom_site_fract_x
 _atom_site_fract_y
 _atom_site_fract_z
 _atom_site_occupancy
  Zr  Zr0  1  0.45470000  0.37853000  0.50000000  1
  Zr  Zr1  1  0.54530000  0.62147000  0.50000000  1
  Zr  Zr2  1  0.62147000  0.45470000  0.50000000  1
  Zr  Zr3  1  0.37853000  0.54530000  0.50000000  1
  Zr  Zr4  1  0.04530000  0.87853000  0.00000000  1
  Zr  Zr5  1  0.95470000  0.12147000  0.00000000  1
  Zr  Zr6  1  0.87853000  0.95470000  0.00000000  1
  Zr  Zr7  1  0.12147000  0.04530000  0.00000000  1
  Zr  Zr8  1  0.50000000  0.50000000  0.42410000  1
  Zr  Zr9  1  0.00000000  0.00000000  0.07590000  1
  Zr  Zr10  1  0.50000000  0.50000000  0.57590000  1
  Zr  Zr11  1  0.00000000  0.00000000  0.92410000  1
  H  H12  1  0.34960000  0.52640000  0.31960000  1
  H  H13  1  0.26470000  0.53260000  0.26960000  1
  H  H14  1  0.08670000  0.47470000  0.33510000  1
  H  H15  1  0.13000000  0.43490000  0.30210000  1
  H  H16  1  0.04970000  0.42840000  0.30250000  1
  H  H17  1  0.21910000  0.59120000  0.40870000  1
  H  H18  1  0.13920000  0.60550000  0.35640000  1
  H  H19  1  0.65040000  0.47360000  0.31960000  1
  H  H20  1  0.73530000  0.46740000  0.26960000  1
  H  H21  1  0.91330000  0.52530000  0.33510000  1
  H  H22  1  0.87000000  0.56510000  0.30210000  1
  H  H23  1  0.95030000  0.57160000  0.30250000  1
  H  H24  1  0.78090000  0.40880000  0.40870000  1
  H  H25  1  0.86080000  0.39450000  0.35640000  1
  H  H26  1  0.47360000  0.34960000  0.31960000  1
  H  H27  1  0.46740000  0.26470000  0.26960000  1
  H  H28  1  0.52530000  0.08670000  0.33510000  1
  H  H29  1  0.56510000  0.13000000  0.30210000  1
  H  H30  1  0.57160000  0.04970000  0.30250000  1
  H  H31  1  0.40880000  0.21910000  0.40870000  1
  H  H32  1  0.39450000  0.13920000  0.35640000  1
  H  H33  1  0.52640000  0.65040000  0.31960000  1
  H  H34  1  0.53260000  0.73530000  0.26960000  1
  H  H35  1  0.47470000  0.91330000  0.33510000  1
  H  H36  1  0.43490000  0.87000000  0.30210000  1
  H  H37  1  0.42840000  0.95030000  0.30250000  1
  H  H38  1  0.59120000  0.78090000  0.40870000  1
  H  H39  1  0.60550000  0.86080000  0.35640000  1
  H  H40  1  0.15040000  0.02640000  0.18040000  1
  H  H41  1  0.23530000  0.03260000  0.23040000  1
  H  H42  1  0.41330000  0.97470000  0.16490000  1
  H  H43  1  0.37000000  0.93490000  0.19790000  1
  H  H44  1  0.45030000  0.92840000  0.19750000  1
  H  H45  1  0.28090000  0.09120000  0.09130000  1
  H  H46  1  0.36080000  0.10550000  0.14360000  1
  H  H47  1  0.28130000  0.17690000  0.22850000  1
  H  H48  1  0.29060000  0.18620000  0.27600000  1
  H  H49  1  0.33470000  0.23030000  0.24550000  1
  H  H50  1  0.84960000  0.97360000  0.18040000  1
  H  H51  1  0.76470000  0.96740000  0.23040000  1
  H  H52  1  0.58670000  0.02530000  0.16490000  1
  H  H53  1  0.63000000  0.06510000  0.19790000  1
  H  H54  1  0.54970000  0.07160000  0.19750000  1
  H  H55  1  0.71910000  0.90880000  0.09130000  1
  H  H56  1  0.63920000  0.89450000  0.14360000  1
  H  H57  1  0.71870000  0.82310000  0.22850000  1
  H  H58  1  0.70940000  0.81380000  0.27600000  1
  H  H59  1  0.66530000  0.76970000  0.24550000  1
  H  H60  1  0.02640000  0.84960000  0.18040000  1
  H  H61  1  0.03260000  0.76470000  0.23040000  1
  H  H62  1  0.97470000  0.58670000  0.16490000  1
  H  H63  1  0.93490000  0.63000000  0.19790000  1
  H  H64  1  0.92840000  0.54970000  0.19750000  1
  H  H65  1  0.09120000  0.71910000  0.09130000  1
  H  H66  1  0.10550000  0.63920000  0.14360000  1
  H  H67  1  0.17690000  0.71870000  0.22850000  1
  H  H68  1  0.18620000  0.70940000  0.27600000  1
  H  H69  1  0.23030000  0.66530000  0.24550000  1
  H  H70  1  0.97360000  0.15040000  0.18040000  1
  H  H71  1  0.96740000  0.23530000  0.23040000  1
  H  H72  1  0.02530000  0.41330000  0.16490000  1
  H  H73  1  0.06510000  0.37000000  0.19790000  1
  H  H74  1  0.07160000  0.45030000  0.19750000  1
  H  H75  1  0.90880000  0.28090000  0.09130000  1
  H  H76  1  0.89450000  0.36080000  0.14360000  1
  H  H77  1  0.82310000  0.28130000  0.22850000  1
  H  H78  1  0.81380000  0.29060000  0.27600000  1
  H  H79  1  0.76970000  0.33470000  0.24550000  1
  H  H80  1  0.65040000  0.47360000  0.68040000  1
  H  H81  1  0.73530000  0.46740000  0.73040000  1
  H  H82  1  0.91330000  0.52530000  0.66490000  1
  H  H83  1  0.87000000  0.56510000  0.69790000  1
  H  H84  1  0.95030000  0.57160000  0.69750000  1
  H  H85  1  0.78090000  0.40880000  0.59130000  1
  H  H86  1  0.86080000  0.39450000  0.64360000  1
  H  H87  1  0.34960000  0.52640000  0.68040000  1
  H  H88  1  0.26470000  0.53260000  0.73040000  1
  H  H89  1  0.08670000  0.47470000  0.66490000  1
  H  H90  1  0.13000000  0.43490000  0.69790000  1
  H  H91  1  0.04970000  0.42840000  0.69750000  1
  H  H92  1  0.21910000  0.59120000  0.59130000  1
  H  H93  1  0.13920000  0.60550000  0.64360000  1
  H  H94  1  0.21870000  0.67690000  0.72850000  1
  H  H95  1  0.20940000  0.68620000  0.77600000  1
  H  H96  1  0.16530000  0.73030000  0.74550000  1
  H  H97  1  0.52640000  0.65040000  0.68040000  1
  H  H98  1  0.53260000  0.73530000  0.73040000  1
  H  H99  1  0.47470000  0.91330000  0.66490000  1
  H  H100  1  0.43490000  0.87000000  0.69790000  1
  H  H101  1  0.42840000  0.95030000  0.69750000  1
  H  H102  1  0.59120000  0.78090000  0.59130000  1
  H  H103  1  0.60550000  0.86080000  0.64360000  1
  H  H104  1  0.67690000  0.78130000  0.72850000  1
  H  H105  1  0.68620000  0.79060000  0.77600000  1
  H  H106  1  0.73030000  0.83470000  0.74550000  1
  H  H107  1  0.47360000  0.34960000  0.68040000  1
  H  H108  1  0.46740000  0.26470000  0.73040000  1
  H  H109  1  0.52530000  0.08670000  0.66490000  1
  H  H110  1  0.56510000  0.13000000  0.69790000  1
  H  H111  1  0.57160000  0.04970000  0.69750000  1
  H  H112  1  0.40880000  0.21910000  0.59130000  1
  H  H113  1  0.39450000  0.13920000  0.64360000  1
  H  H114  1  0.32310000  0.21870000  0.72850000  1
  H  H115  1  0.31380000  0.20940000  0.77600000  1
  H  H116  1  0.26970000  0.16530000  0.74550000  1
  H  H117  1  0.84960000  0.97360000  0.81960000  1
  H  H118  1  0.76470000  0.96740000  0.76960000  1
  H  H119  1  0.58670000  0.02530000  0.83510000  1
  H  H120  1  0.63000000  0.06510000  0.80210000  1
  H  H121  1  0.54970000  0.07160000  0.80250000  1
  H  H122  1  0.71910000  0.90880000  0.90870000  1
  H  H123  1  0.63920000  0.89450000  0.85640000  1
  H  H124  1  0.15040000  0.02640000  0.81960000  1
  H  H125  1  0.23530000  0.03260000  0.76960000  1
  H  H126  1  0.41330000  0.97470000  0.83510000  1
  H  H127  1  0.37000000  0.93490000  0.80210000  1
  H  H128  1  0.45030000  0.92840000  0.80250000  1
  H  H129  1  0.28090000  0.09120000  0.90870000  1
  H  H130  1  0.36080000  0.10550000  0.85640000  1
  H  H131  1  0.97360000  0.15040000  0.81960000  1
  H  H132  1  0.96740000  0.23530000  0.76960000  1
  H  H133  1  0.02530000  0.41330000  0.83510000  1
  H  H134  1  0.06510000  0.37000000  0.80210000  1
  H  H135  1  0.07160000  0.45030000  0.80250000  1
  H  H136  1  0.90880000  0.28090000  0.90870000  1
  H  H137  1  0.89450000  0.36080000  0.85640000  1
  H  H138  1  0.82310000  0.28130000  0.77150000  1
  H  H139  1  0.81380000  0.29060000  0.72400000  1
  H  H140  1  0.76970000  0.33470000  0.75450000  1
  H  H141  1  0.02640000  0.84960000  0.81960000  1
  H  H142  1  0.03260000  0.76470000  0.76960000  1
  H  H143  1  0.97470000  0.58670000  0.83510000  1
  H  H144  1  0.93490000  0.63000000  0.80210000  1
  H  H145  1  0.92840000  0.54970000  0.80250000  1
  H  H146  1  0.09120000  0.71910000  0.90870000  1
  H  H147  1  0.10550000  0.63920000  0.85640000  1
  C  C148  1  0.08230000  0.52180000  0.27750000  1
  C  C149  1  0.30590000  0.54130000  0.32710000  1
  C  C150  1  0.35280000  0.55290000  0.39870000  1
  C  C151  1  0.25500000  0.54520000  0.29660000  1
  C  C152  1  0.12940000  0.57600000  0.27750000  1
  C  C153  1  0.08770000  0.45890000  0.30720000  1
  C  C154  1  0.29420000  0.55860000  0.36840000  1
  C  C155  1  0.18880000  0.56880000  0.30760000  1
  C  C156  1  0.22950000  0.58110000  0.38150000  1
  C  C157  1  0.18160000  0.58700000  0.34920000  1
  C  C158  1  0.91770000  0.47820000  0.27750000  1
  C  C159  1  0.69410000  0.45870000  0.32710000  1
  C  C160  1  0.64720000  0.44710000  0.39870000  1
  C  C161  1  0.74500000  0.45480000  0.29660000  1
  C  C162  1  0.87060000  0.42400000  0.27750000  1
  C  C163  1  0.91230000  0.54110000  0.30720000  1
  C  C164  1  0.70580000  0.44140000  0.36840000  1
  C  C165  1  0.81120000  0.43120000  0.30760000  1
  C  C166  1  0.77050000  0.41890000  0.38150000  1
  C  C167  1  0.81840000  0.41300000  0.34920000  1
  C  C168  1  0.47820000  0.08230000  0.27750000  1
  C  C169  1  0.45870000  0.30590000  0.32710000  1
  C  C170  1  0.44710000  0.35280000  0.39870000  1
  C  C171  1  0.45480000  0.25500000  0.29660000  1
  C  C172  1  0.42400000  0.12940000  0.27750000  1
  C  C173  1  0.54110000  0.08770000  0.30720000  1
  C  C174  1  0.44140000  0.29420000  0.36840000  1
  C  C175  1  0.43120000  0.18880000  0.30760000  1
  C  C176  1  0.41890000  0.22950000  0.38150000  1
  C  C177  1  0.41300000  0.18160000  0.34920000  1
  C  C178  1  0.52180000  0.91770000  0.27750000  1
  C  C179  1  0.54130000  0.69410000  0.32710000  1
  C  C180  1  0.55290000  0.64720000  0.39870000  1
  C  C181  1  0.54520000  0.74500000  0.29660000  1
  C  C182  1  0.57600000  0.87060000  0.27750000  1
  C  C183  1  0.45890000  0.91230000  0.30720000  1
  C  C184  1  0.55860000  0.70580000  0.36840000  1
  C  C185  1  0.56880000  0.81120000  0.30760000  1
  C  C186  1  0.58110000  0.77050000  0.38150000  1
  C  C187  1  0.58700000  0.81840000  0.34920000  1
  C  C188  1  0.41770000  0.02180000  0.22250000  1
  C  C189  1  0.19410000  0.04130000  0.17290000  1
  C  C190  1  0.14720000  0.05290000  0.10130000  1
  C  C191  1  0.24500000  0.04520000  0.20340000  1
  C  C192  1  0.37060000  0.07600000  0.22250000  1
  C  C193  1  0.41230000  0.95890000  0.19280000  1
  C  C194  1  0.20580000  0.05860000  0.13160000  1
  C  C195  1  0.31120000  0.06880000  0.19240000  1
  C  C196  1  0.27050000  0.08110000  0.11850000  1
  C  C197  1  0.31840000  0.08700000  0.15080000  1
  C  C198  1  0.58230000  0.97820000  0.22250000  1
  C  C199  1  0.80590000  0.95870000  0.17290000  1
  C  C200  1  0.85280000  0.94710000  0.10130000  1
  C  C201  1  0.75500000  0.95480000  0.20340000  1
  C  C202  1  0.62940000  0.92400000  0.22250000  1
  C  C203  1  0.58770000  0.04110000  0.19280000  1
  C  C204  1  0.79420000  0.94140000  0.13160000  1
  C  C205  1  0.68880000  0.93120000  0.19240000  1
  C  C206  1  0.72950000  0.91890000  0.11850000  1
  C  C207  1  0.68160000  0.91300000  0.15080000  1
  C  C208  1  0.02180000  0.58230000  0.22250000  1
  C  C209  1  0.04130000  0.80590000  0.17290000  1
  C  C210  1  0.05290000  0.85280000  0.10130000  1
  C  C211  1  0.04520000  0.75500000  0.20340000  1
  C  C212  1  0.07600000  0.62940000  0.22250000  1
  C  C213  1  0.95890000  0.58770000  0.19280000  1
  C  C214  1  0.05860000  0.79420000  0.13160000  1
  C  C215  1  0.06880000  0.68880000  0.19240000  1
  C  C216  1  0.08110000  0.72950000  0.11850000  1
  C  C217  1  0.08700000  0.68160000  0.15080000  1
  C  C218  1  0.97820000  0.41770000  0.22250000  1
  C  C219  1  0.95870000  0.19410000  0.17290000  1
  C  C220  1  0.94710000  0.14720000  0.10130000  1
  C  C221  1  0.95480000  0.24500000  0.20340000  1
  C  C222  1  0.92400000  0.37060000  0.22250000  1
  C  C223  1  0.04110000  0.41230000  0.19280000  1
  C  C224  1  0.94140000  0.20580000  0.13160000  1
  C  C225  1  0.93120000  0.31120000  0.19240000  1
  C  C226  1  0.91890000  0.27050000  0.11850000  1
  C  C227  1  0.91300000  0.31840000  0.15080000  1
  C  C228  1  0.91770000  0.47820000  0.72250000  1
  C  C229  1  0.69410000  0.45870000  0.67290000  1
  C  C230  1  0.64720000  0.44710000  0.60130000  1
  C  C231  1  0.74500000  0.45480000  0.70340000  1
  C  C232  1  0.87060000  0.42400000  0.72250000  1
  C  C233  1  0.91230000  0.54110000  0.69280000  1
  C  C234  1  0.70580000  0.44140000  0.63160000  1
  C  C235  1  0.81120000  0.43120000  0.69240000  1
  C  C236  1  0.77050000  0.41890000  0.61850000  1
  C  C237  1  0.81840000  0.41300000  0.65080000  1
  C  C238  1  0.08230000  0.52180000  0.72250000  1
  C  C239  1  0.30590000  0.54130000  0.67290000  1
  C  C240  1  0.35280000  0.55290000  0.60130000  1
  C  C241  1  0.25500000  0.54520000  0.70340000  1
  C  C242  1  0.12940000  0.57600000  0.72250000  1
  C  C243  1  0.08770000  0.45890000  0.69280000  1
  C  C244  1  0.29420000  0.55860000  0.63160000  1
  C  C245  1  0.18880000  0.56880000  0.69240000  1
  C  C246  1  0.22950000  0.58110000  0.61850000  1
  C  C247  1  0.18160000  0.58700000  0.65080000  1
  C  C248  1  0.52180000  0.91770000  0.72250000  1
  C  C249  1  0.54130000  0.69410000  0.67290000  1
  C  C250  1  0.55290000  0.64720000  0.60130000  1
  C  C251  1  0.54520000  0.74500000  0.70340000  1
  C  C252  1  0.57600000  0.87060000  0.72250000  1
  C  C253  1  0.45890000  0.91230000  0.69280000  1
  C  C254  1  0.55860000  0.70580000  0.63160000  1
  C  C255  1  0.56880000  0.81120000  0.69240000  1
  C  C256  1  0.58110000  0.77050000  0.61850000  1
  C  C257  1  0.58700000  0.81840000  0.65080000  1
  C  C258  1  0.47820000  0.08230000  0.72250000  1
  C  C259  1  0.45870000  0.30590000  0.67290000  1
  C  C260  1  0.44710000  0.35280000  0.60130000  1
  C  C261  1  0.45480000  0.25500000  0.70340000  1
  C  C262  1  0.42400000  0.12940000  0.72250000  1
  C  C263  1  0.54110000  0.08770000  0.69280000  1
  C  C264  1  0.44140000  0.29420000  0.63160000  1
  C  C265  1  0.43120000  0.18880000  0.69240000  1
  C  C266  1  0.41890000  0.22950000  0.61850000  1
  C  C267  1  0.41300000  0.18160000  0.65080000  1
  C  C268  1  0.58230000  0.97820000  0.77750000  1
  C  C269  1  0.80590000  0.95870000  0.82710000  1
  C  C270  1  0.85280000  0.94710000  0.89870000  1
  C  C271  1  0.75500000  0.95480000  0.79660000  1
  C  C272  1  0.62940000  0.92400000  0.77750000  1
  C  C273  1  0.58770000  0.04110000  0.80720000  1
  C  C274  1  0.79420000  0.94140000  0.86840000  1
  C  C275  1  0.68880000  0.93120000  0.80760000  1
  C  C276  1  0.72950000  0.91890000  0.88150000  1
  C  C277  1  0.68160000  0.91300000  0.84920000  1
  C  C278  1  0.41770000  0.02180000  0.77750000  1
  C  C279  1  0.19410000  0.04130000  0.82710000  1
  C  C280  1  0.14720000  0.05290000  0.89870000  1
  C  C281  1  0.24500000  0.04520000  0.79660000  1
  C  C282  1  0.37060000  0.07600000  0.77750000  1
  C  C283  1  0.41230000  0.95890000  0.80720000  1
  C  C284  1  0.20580000  0.05860000  0.86840000  1
  C  C285  1  0.31120000  0.06880000  0.80760000  1
  C  C286  1  0.27050000  0.08110000  0.88150000  1
  C  C287  1  0.31840000  0.08700000  0.84920000  1
  C  C288  1  0.97820000  0.41770000  0.77750000  1
  C  C289  1  0.95870000  0.19410000  0.82710000  1
  C  C290  1  0.94710000  0.14720000  0.89870000  1
  C  C291  1  0.95480000  0.24500000  0.79660000  1
  C  C292  1  0.92400000  0.37060000  0.77750000  1
  C  C293  1  0.04110000  0.41230000  0.80720000  1
  C  C294  1  0.94140000  0.20580000  0.86840000  1
  C  C295  1  0.93120000  0.31120000  0.80760000  1
  C  C296  1  0.91890000  0.27050000  0.88150000  1
  C  C297  1  0.91300000  0.31840000  0.84920000  1
  C  C298  1  0.02180000  0.58230000  0.77750000  1
  C  C299  1  0.04130000  0.80590000  0.82710000  1
  C  C300  1  0.05290000  0.85280000  0.89870000  1
  C  C301  1  0.04520000  0.75500000  0.79660000  1
  C  C302  1  0.07600000  0.62940000  0.77750000  1
  C  C303  1  0.95890000  0.58770000  0.80720000  1
  C  C304  1  0.05860000  0.79420000  0.86840000  1
  C  C305  1  0.06880000  0.68880000  0.80760000  1
  C  C306  1  0.08110000  0.72950000  0.88150000  1
  C  C307  1  0.08700000  0.68160000  0.84920000  1
  C  C308  1  0.02735000  0.52735000  0.25000000  1
  C  C309  1  0.13130000  0.63130000  0.25000000  1
  C  C310  1  0.18620000  0.68620000  0.25000000  1
  C  C311  1  0.97265000  0.47265000  0.25000000  1
  C  C312  1  0.86870000  0.36870000  0.25000000  1
  C  C313  1  0.81380000  0.31380000  0.25000000  1
  C  C314  1  0.47265000  0.02735000  0.25000000  1
  C  C315  1  0.36870000  0.13130000  0.25000000  1
  C  C316  1  0.31380000  0.18620000  0.25000000  1
  C  C317  1  0.52735000  0.97265000  0.25000000  1
  C  C318  1  0.63130000  0.86870000  0.25000000  1
  C  C319  1  0.68620000  0.81380000  0.25000000  1
  C  C320  1  0.97265000  0.47265000  0.75000000  1
  C  C321  1  0.86870000  0.36870000  0.75000000  1
  C  C322  1  0.81380000  0.31380000  0.75000000  1
  C  C323  1  0.02735000  0.52735000  0.75000000  1
  C  C324  1  0.13130000  0.63130000  0.75000000  1
  C  C325  1  0.18620000  0.68620000  0.75000000  1
  C  C326  1  0.52735000  0.97265000  0.75000000  1
  C  C327  1  0.63130000  0.86870000  0.75000000  1
  C  C328  1  0.68620000  0.81380000  0.75000000  1
  C  C329  1  0.47265000  0.02735000  0.75000000  1
  C  C330  1  0.36870000  0.13130000  0.75000000  1
  C  C331  1  0.31380000  0.18620000  0.75000000  1
  O  O332  1  0.40930000  0.52350000  0.38770000  1
  O  O333  1  0.32780000  0.56270000  0.43830000  1
  O  O334  1  0.41510000  0.46290000  0.46210000  1
  O  O335  1  0.59070000  0.47650000  0.38770000  1
  O  O336  1  0.67220000  0.43730000  0.43830000  1
  O  O337  1  0.58490000  0.53710000  0.46210000  1
  O  O338  1  0.47650000  0.40930000  0.38770000  1
  O  O339  1  0.43730000  0.32780000  0.43830000  1
  O  O340  1  0.53710000  0.41510000  0.46210000  1
  O  O341  1  0.52350000  0.59070000  0.38770000  1
  O  O342  1  0.56270000  0.67220000  0.43830000  1
  O  O343  1  0.46290000  0.58490000  0.46210000  1
  O  O344  1  0.09070000  0.02350000  0.11230000  1
  O  O345  1  0.17220000  0.06270000  0.06170000  1
  O  O346  1  0.08490000  0.96290000  0.03790000  1
  O  O347  1  0.90930000  0.97650000  0.11230000  1
  O  O348  1  0.82780000  0.93730000  0.06170000  1
  O  O349  1  0.91510000  0.03710000  0.03790000  1
  O  O350  1  0.02350000  0.90930000  0.11230000  1
  O  O351  1  0.06270000  0.82780000  0.06170000  1
  O  O352  1  0.96290000  0.91510000  0.03790000  1
  O  O353  1  0.97650000  0.09070000  0.11230000  1
  O  O354  1  0.93730000  0.17220000  0.06170000  1
  O  O355  1  0.03710000  0.08490000  0.03790000  1
  O  O356  1  0.59070000  0.47650000  0.61230000  1
  O  O357  1  0.67220000  0.43730000  0.56170000  1
  O  O358  1  0.58490000  0.53710000  0.53790000  1
  O  O359  1  0.40930000  0.52350000  0.61230000  1
  O  O360  1  0.32780000  0.56270000  0.56170000  1
  O  O361  1  0.41510000  0.46290000  0.53790000  1
  O  O362  1  0.52350000  0.59070000  0.61230000  1
  O  O363  1  0.56270000  0.67220000  0.56170000  1
  O  O364  1  0.46290000  0.58490000  0.53790000  1
  O  O365  1  0.47650000  0.40930000  0.61230000  1
  O  O366  1  0.43730000  0.32780000  0.56170000  1
  O  O367  1  0.53710000  0.41510000  0.53790000  1
  O  O368  1  0.90930000  0.97650000  0.88770000  1
  O  O369  1  0.82780000  0.93730000  0.93830000  1
  O  O370  1  0.91510000  0.03710000  0.96210000  1
  O  O371  1  0.09070000  0.02350000  0.88770000  1
  O  O372  1  0.17220000  0.06270000  0.93830000  1
  O  O373  1  0.08490000  0.96290000  0.96210000  1
  O  O374  1  0.97650000  0.09070000  0.88770000  1
  O  O375  1  0.93730000  0.17220000  0.93830000  1
  O  O376  1  0.03710000  0.08490000  0.96210000  1
  O  O377  1  0.02350000  0.90930000  0.88770000  1
  O  O378  1  0.06270000  0.82780000  0.93830000  1
  O  O379  1  0.96290000  0.91510000  0.96210000  1
