# generated using pymatgen
data_Zr3H34(C23O6)2
_symmetry_space_group_name_H-M   'P 1'
_cell_length_a   18.93660000
_cell_length_b   18.93660000
_cell_length_c   32.86400000
_cell_angle_alpha   90.00000000
_cell_angle_beta   90.00000000
_cell_angle_gamma   90.00000000
_symmetry_Int_Tables_number   1
_chemical_formula_structural   Zr3H34(C23O6)2
_chemical_formula_sum   'Zr12 H136 C184 O48'
_cell_volume   11784.86015002
_cell_formula_units_Z   4
loop_
 _symmetry_equiv_pos_site_id
 _symmetry_equiv_pos_as_xyz
  1  'x, y, z'
loop_
 _atom_site_type_symbol
 _atom_site_label
 _atom_site_symmetry_multiplicity
 _atom_site_fract_x
 _atom_site_fract_y
 _atom_site_fract_z
 _atom_site_occupancy
  Zr  Zr0  1  0.12307000  0.04505000  0.00000000  1
  Zr  Zr1  1  0.87693000  0.95495000  0.00000000  1
  Zr  Zr2  1  0.95495000  0.12307000  0.00000000  1
  Zr  Zr3  1  0.04505000  0.87693000  0.00000000  1
  Zr  Zr4  1  0.37693000  0.54505000  0.50000000  1
  Zr  Zr5  1  0.62307000  0.45495000  0.50000000  1
  Zr  Zr6  1  0.54505000  0.62307000  0.50000000  1
  Zr  Zr7  1  0.45495000  0.37693000  0.50000000  1
  Zr  Zr8  1  0.00000000  0.00000000  0.07400000  1
  Zr  Zr9  1  0.50000000  0.50000000  0.42600000  1
  Zr  Zr10  1  0.00000000  0.00000000  0.92600000  1
  Zr  Zr11  1  0.50000000  0.50000000  0.57400000  1
  H  H12  1  0.06980000  0.44510000  0.19680000  1
  H  H13  1  0.05900000  0.36310000  0.19550000  1
  H  H14  1  0.01770000  0.41180000  0.16520000  1
  H  H15  1  0.90660000  0.28510000  0.09240000  1
  H  H16  1  0.89920000  0.37200000  0.14190000  1
  H  H17  1  0.96180000  0.23210000  0.22650000  1
  H  H18  1  0.96920000  0.14520000  0.17690000  1
  H  H19  1  0.82460000  0.28220000  0.22850000  1
  H  H20  1  0.81560000  0.29120000  0.27570000  1
  H  H21  1  0.77000000  0.33680000  0.24580000  1
  H  H22  1  0.93020000  0.55490000  0.19680000  1
  H  H23  1  0.94100000  0.63690000  0.19550000  1
  H  H24  1  0.98230000  0.58820000  0.16520000  1
  H  H25  1  0.09340000  0.71490000  0.09240000  1
  H  H26  1  0.10080000  0.62800000  0.14190000  1
  H  H27  1  0.03820000  0.76790000  0.22650000  1
  H  H28  1  0.03080000  0.85480000  0.17690000  1
  H  H29  1  0.55490000  0.06980000  0.19680000  1
  H  H30  1  0.63690000  0.05900000  0.19550000  1
  H  H31  1  0.58820000  0.01770000  0.16520000  1
  H  H32  1  0.71490000  0.90660000  0.09240000  1
  H  H33  1  0.62800000  0.89920000  0.14190000  1
  H  H34  1  0.76790000  0.96180000  0.22650000  1
  H  H35  1  0.85480000  0.96920000  0.17690000  1
  H  H36  1  0.44510000  0.93020000  0.19680000  1
  H  H37  1  0.36310000  0.94100000  0.19550000  1
  H  H38  1  0.41180000  0.98230000  0.16520000  1
  H  H39  1  0.28510000  0.09340000  0.09240000  1
  H  H40  1  0.37200000  0.10080000  0.14190000  1
  H  H41  1  0.23210000  0.03820000  0.22650000  1
  H  H42  1  0.14520000  0.03080000  0.17690000  1
  H  H43  1  0.28220000  0.17540000  0.22850000  1
  H  H44  1  0.29120000  0.18440000  0.27570000  1
  H  H45  1  0.33680000  0.23000000  0.24580000  1
  H  H46  1  0.43020000  0.94510000  0.30320000  1
  H  H47  1  0.44100000  0.86310000  0.30450000  1
  H  H48  1  0.48230000  0.91180000  0.33480000  1
  H  H49  1  0.59340000  0.78510000  0.40760000  1
  H  H50  1  0.60080000  0.87200000  0.35810000  1
  H  H51  1  0.53820000  0.73210000  0.27350000  1
  H  H52  1  0.53080000  0.64520000  0.32310000  1
  H  H53  1  0.67540000  0.78220000  0.27150000  1
  H  H54  1  0.68440000  0.79120000  0.22430000  1
  H  H55  1  0.73000000  0.83680000  0.25420000  1
  H  H56  1  0.56980000  0.05490000  0.30320000  1
  H  H57  1  0.55900000  0.13690000  0.30450000  1
  H  H58  1  0.51770000  0.08820000  0.33480000  1
  H  H59  1  0.40660000  0.21490000  0.40760000  1
  H  H60  1  0.39920000  0.12800000  0.35810000  1
  H  H61  1  0.46180000  0.26790000  0.27350000  1
  H  H62  1  0.46920000  0.35480000  0.32310000  1
  H  H63  1  0.94510000  0.56980000  0.30320000  1
  H  H64  1  0.86310000  0.55900000  0.30450000  1
  H  H65  1  0.91180000  0.51770000  0.33480000  1
  H  H66  1  0.78510000  0.40660000  0.40760000  1
  H  H67  1  0.87200000  0.39920000  0.35810000  1
  H  H68  1  0.73210000  0.46180000  0.27350000  1
  H  H69  1  0.64520000  0.46920000  0.32310000  1
  H  H70  1  0.05490000  0.43020000  0.30320000  1
  H  H71  1  0.13690000  0.44100000  0.30450000  1
  H  H72  1  0.08820000  0.48230000  0.33480000  1
  H  H73  1  0.21490000  0.59340000  0.40760000  1
  H  H74  1  0.12800000  0.60080000  0.35810000  1
  H  H75  1  0.26790000  0.53820000  0.27350000  1
  H  H76  1  0.35480000  0.53080000  0.32310000  1
  H  H77  1  0.21780000  0.67540000  0.27150000  1
  H  H78  1  0.20880000  0.68440000  0.22430000  1
  H  H79  1  0.16320000  0.73000000  0.25420000  1
  H  H80  1  0.93020000  0.55490000  0.80320000  1
  H  H81  1  0.94100000  0.63690000  0.80450000  1
  H  H82  1  0.98230000  0.58820000  0.83480000  1
  H  H83  1  0.09340000  0.71490000  0.90760000  1
  H  H84  1  0.10080000  0.62800000  0.85810000  1
  H  H85  1  0.03820000  0.76790000  0.77350000  1
  H  H86  1  0.03080000  0.85480000  0.82310000  1
  H  H87  1  0.06980000  0.44510000  0.80320000  1
  H  H88  1  0.05900000  0.36310000  0.80450000  1
  H  H89  1  0.01770000  0.41180000  0.83480000  1
  H  H90  1  0.90660000  0.28510000  0.90760000  1
  H  H91  1  0.89920000  0.37200000  0.85810000  1
  H  H92  1  0.96180000  0.23210000  0.77350000  1
  H  H93  1  0.96920000  0.14520000  0.82310000  1
  H  H94  1  0.82460000  0.28220000  0.77150000  1
  H  H95  1  0.81560000  0.29120000  0.72430000  1
  H  H96  1  0.77000000  0.33680000  0.75420000  1
  H  H97  1  0.44510000  0.93020000  0.80320000  1
  H  H98  1  0.36310000  0.94100000  0.80450000  1
  H  H99  1  0.41180000  0.98230000  0.83480000  1
  H  H100  1  0.28510000  0.09340000  0.90760000  1
  H  H101  1  0.37200000  0.10080000  0.85810000  1
  H  H102  1  0.23210000  0.03820000  0.77350000  1
  H  H103  1  0.14520000  0.03080000  0.82310000  1
  H  H104  1  0.55490000  0.06980000  0.80320000  1
  H  H105  1  0.63690000  0.05900000  0.80450000  1
  H  H106  1  0.58820000  0.01770000  0.83480000  1
  H  H107  1  0.71490000  0.90660000  0.90760000  1
  H  H108  1  0.62800000  0.89920000  0.85810000  1
  H  H109  1  0.76790000  0.96180000  0.77350000  1
  H  H110  1  0.85480000  0.96920000  0.82310000  1
  H  H111  1  0.56980000  0.05490000  0.69680000  1
  H  H112  1  0.55900000  0.13690000  0.69550000  1
  H  H113  1  0.51770000  0.08820000  0.66520000  1
  H  H114  1  0.40660000  0.21490000  0.59240000  1
  H  H115  1  0.39920000  0.12800000  0.64190000  1
  H  H116  1  0.46180000  0.26790000  0.72650000  1
  H  H117  1  0.46920000  0.35480000  0.67690000  1
  H  H118  1  0.32460000  0.21780000  0.72850000  1
  H  H119  1  0.31560000  0.20880000  0.77570000  1
  H  H120  1  0.27000000  0.16320000  0.74580000  1
  H  H121  1  0.43020000  0.94510000  0.69680000  1
  H  H122  1  0.44100000  0.86310000  0.69550000  1
  H  H123  1  0.48230000  0.91180000  0.66520000  1
  H  H124  1  0.59340000  0.78510000  0.59240000  1
  H  H125  1  0.60080000  0.87200000  0.64190000  1
  H  H126  1  0.53820000  0.73210000  0.72650000  1
  H  H127  1  0.53080000  0.64520000  0.67690000  1
  H  H128  1  0.67540000  0.78220000  0.72850000  1
  H  H129  1  0.68440000  0.79120000  0.77570000  1
  H  H130  1  0.73000000  0.83680000  0.74580000  1
  H  H131  1  0.05490000  0.43020000  0.69680000  1
  H  H132  1  0.13690000  0.44100000  0.69550000  1
  H  H133  1  0.08820000  0.48230000  0.66520000  1
  H  H134  1  0.21490000  0.59340000  0.59240000  1
  H  H135  1  0.12800000  0.60080000  0.64190000  1
  H  H136  1  0.26790000  0.53820000  0.72650000  1
  H  H137  1  0.35480000  0.53080000  0.67690000  1
  H  H138  1  0.21780000  0.67540000  0.72850000  1
  H  H139  1  0.20880000  0.68440000  0.77570000  1
  H  H140  1  0.16320000  0.73000000  0.74580000  1
  H  H141  1  0.94510000  0.56980000  0.69680000  1
  H  H142  1  0.86310000  0.55900000  0.69550000  1
  H  H143  1  0.91180000  0.51770000  0.66520000  1
  H  H144  1  0.78510000  0.40660000  0.59240000  1
  H  H145  1  0.87200000  0.39920000  0.64190000  1
  H  H146  1  0.73210000  0.46180000  0.72650000  1
  H  H147  1  0.64520000  0.46920000  0.67690000  1
  C  C148  1  0.97690000  0.41440000  0.22240000  1
  C  C149  1  0.94380000  0.14900000  0.09810000  1
  C  C150  1  0.92470000  0.36690000  0.22080000  1
  C  C151  1  0.03620000  0.40800000  0.19230000  1
  C  C152  1  0.91760000  0.27450000  0.11920000  1
  C  C153  1  0.91320000  0.32660000  0.14890000  1
  C  C154  1  0.92980000  0.31070000  0.18910000  1
  C  C155  1  0.95080000  0.24270000  0.19960000  1
  C  C156  1  0.95520000  0.19060000  0.16990000  1
  C  C157  1  0.93860000  0.20650000  0.12970000  1
  C  C158  1  0.02310000  0.58560000  0.22240000  1
  C  C159  1  0.05620000  0.85100000  0.09810000  1
  C  C160  1  0.07530000  0.63310000  0.22080000  1
  C  C161  1  0.96380000  0.59200000  0.19230000  1
  C  C162  1  0.08240000  0.72550000  0.11920000  1
  C  C163  1  0.08680000  0.67340000  0.14890000  1
  C  C164  1  0.07020000  0.68930000  0.18910000  1
  C  C165  1  0.04920000  0.75730000  0.19960000  1
  C  C166  1  0.04480000  0.80940000  0.16990000  1
  C  C167  1  0.06140000  0.79350000  0.12970000  1
  C  C168  1  0.58560000  0.97690000  0.22240000  1
  C  C169  1  0.85100000  0.94380000  0.09810000  1
  C  C170  1  0.63310000  0.92470000  0.22080000  1
  C  C171  1  0.59200000  0.03620000  0.19230000  1
  C  C172  1  0.72550000  0.91760000  0.11920000  1
  C  C173  1  0.67340000  0.91320000  0.14890000  1
  C  C174  1  0.68930000  0.92980000  0.18910000  1
  C  C175  1  0.75730000  0.95080000  0.19960000  1
  C  C176  1  0.80940000  0.95520000  0.16990000  1
  C  C177  1  0.79350000  0.93860000  0.12970000  1
  C  C178  1  0.41440000  0.02310000  0.22240000  1
  C  C179  1  0.14900000  0.05620000  0.09810000  1
  C  C180  1  0.36690000  0.07530000  0.22080000  1
  C  C181  1  0.40800000  0.96380000  0.19230000  1
  C  C182  1  0.27450000  0.08240000  0.11920000  1
  C  C183  1  0.32660000  0.08680000  0.14890000  1
  C  C184  1  0.31070000  0.07020000  0.18910000  1
  C  C185  1  0.24270000  0.04920000  0.19960000  1
  C  C186  1  0.19060000  0.04480000  0.16990000  1
  C  C187  1  0.20650000  0.06140000  0.12970000  1
  C  C188  1  0.52310000  0.91440000  0.27760000  1
  C  C189  1  0.55620000  0.64900000  0.40190000  1
  C  C190  1  0.57530000  0.86690000  0.27920000  1
  C  C191  1  0.46380000  0.90800000  0.30770000  1
  C  C192  1  0.58240000  0.77450000  0.38080000  1
  C  C193  1  0.58680000  0.82660000  0.35110000  1
  C  C194  1  0.57020000  0.81070000  0.31090000  1
  C  C195  1  0.54920000  0.74270000  0.30040000  1
  C  C196  1  0.54480000  0.69060000  0.33010000  1
  C  C197  1  0.56140000  0.70650000  0.37030000  1
  C  C198  1  0.47690000  0.08560000  0.27760000  1
  C  C199  1  0.44380000  0.35100000  0.40190000  1
  C  C200  1  0.42470000  0.13310000  0.27920000  1
  C  C201  1  0.53620000  0.09200000  0.30770000  1
  C  C202  1  0.41760000  0.22550000  0.38080000  1
  C  C203  1  0.41320000  0.17340000  0.35110000  1
  C  C204  1  0.42980000  0.18930000  0.31090000  1
  C  C205  1  0.45080000  0.25730000  0.30040000  1
  C  C206  1  0.45520000  0.30940000  0.33010000  1
  C  C207  1  0.43860000  0.29350000  0.37030000  1
  C  C208  1  0.91440000  0.47690000  0.27760000  1
  C  C209  1  0.64900000  0.44380000  0.40190000  1
  C  C210  1  0.86690000  0.42470000  0.27920000  1
  C  C211  1  0.90800000  0.53620000  0.30770000  1
  C  C212  1  0.77450000  0.41760000  0.38080000  1
  C  C213  1  0.82660000  0.41320000  0.35110000  1
  C  C214  1  0.81070000  0.42980000  0.31090000  1
  C  C215  1  0.74270000  0.45080000  0.30040000  1
  C  C216  1  0.69060000  0.45520000  0.33010000  1
  C  C217  1  0.70650000  0.43860000  0.37030000  1
  C  C218  1  0.08560000  0.52310000  0.27760000  1
  C  C219  1  0.35100000  0.55620000  0.40190000  1
  C  C220  1  0.13310000  0.57530000  0.27920000  1
  C  C221  1  0.09200000  0.46380000  0.30770000  1
  C  C222  1  0.22550000  0.58240000  0.38080000  1
  C  C223  1  0.17340000  0.58680000  0.35110000  1
  C  C224  1  0.18930000  0.57020000  0.31090000  1
  C  C225  1  0.25730000  0.54920000  0.30040000  1
  C  C226  1  0.30940000  0.54480000  0.33010000  1
  C  C227  1  0.29350000  0.56140000  0.37030000  1
  C  C228  1  0.02310000  0.58560000  0.77760000  1
  C  C229  1  0.05620000  0.85100000  0.90190000  1
  C  C230  1  0.07530000  0.63310000  0.77920000  1
  C  C231  1  0.96380000  0.59200000  0.80770000  1
  C  C232  1  0.08240000  0.72550000  0.88080000  1
  C  C233  1  0.08680000  0.67340000  0.85110000  1
  C  C234  1  0.07020000  0.68930000  0.81090000  1
  C  C235  1  0.04920000  0.75730000  0.80040000  1
  C  C236  1  0.04480000  0.80940000  0.83010000  1
  C  C237  1  0.06140000  0.79350000  0.87030000  1
  C  C238  1  0.97690000  0.41440000  0.77760000  1
  C  C239  1  0.94380000  0.14900000  0.90190000  1
  C  C240  1  0.92470000  0.36690000  0.77920000  1
  C  C241  1  0.03620000  0.40800000  0.80770000  1
  C  C242  1  0.91760000  0.27450000  0.88080000  1
  C  C243  1  0.91320000  0.32660000  0.85110000  1
  C  C244  1  0.92980000  0.31070000  0.81090000  1
  C  C245  1  0.95080000  0.24270000  0.80040000  1
  C  C246  1  0.95520000  0.19060000  0.83010000  1
  C  C247  1  0.93860000  0.20650000  0.87030000  1
  C  C248  1  0.41440000  0.02310000  0.77760000  1
  C  C249  1  0.14900000  0.05620000  0.90190000  1
  C  C250  1  0.36690000  0.07530000  0.77920000  1
  C  C251  1  0.40800000  0.96380000  0.80770000  1
  C  C252  1  0.27450000  0.08240000  0.88080000  1
  C  C253  1  0.32660000  0.08680000  0.85110000  1
  C  C254  1  0.31070000  0.07020000  0.81090000  1
  C  C255  1  0.24270000  0.04920000  0.80040000  1
  C  C256  1  0.19060000  0.04480000  0.83010000  1
  C  C257  1  0.20650000  0.06140000  0.87030000  1
  C  C258  1  0.58560000  0.97690000  0.77760000  1
  C  C259  1  0.85100000  0.94380000  0.90190000  1
  C  C260  1  0.63310000  0.92470000  0.77920000  1
  C  C261  1  0.59200000  0.03620000  0.80770000  1
  C  C262  1  0.72550000  0.91760000  0.88080000  1
  C  C263  1  0.67340000  0.91320000  0.85110000  1
  C  C264  1  0.68930000  0.92980000  0.81090000  1
  C  C265  1  0.75730000  0.95080000  0.80040000  1
  C  C266  1  0.80940000  0.95520000  0.83010000  1
  C  C267  1  0.79350000  0.93860000  0.87030000  1
  C  C268  1  0.47690000  0.08560000  0.72240000  1
  C  C269  1  0.44380000  0.35100000  0.59810000  1
  C  C270  1  0.42470000  0.13310000  0.72080000  1
  C  C271  1  0.53620000  0.09200000  0.69230000  1
  C  C272  1  0.41760000  0.22550000  0.61920000  1
  C  C273  1  0.41320000  0.17340000  0.64890000  1
  C  C274  1  0.42980000  0.18930000  0.68910000  1
  C  C275  1  0.45080000  0.25730000  0.69960000  1
  C  C276  1  0.45520000  0.30940000  0.66990000  1
  C  C277  1  0.43860000  0.29350000  0.62970000  1
  C  C278  1  0.52310000  0.91440000  0.72240000  1
  C  C279  1  0.55620000  0.64900000  0.59810000  1
  C  C280  1  0.57530000  0.86690000  0.72080000  1
  C  C281  1  0.46380000  0.90800000  0.69230000  1
  C  C282  1  0.58240000  0.77450000  0.61920000  1
  C  C283  1  0.58680000  0.82660000  0.64890000  1
  C  C284  1  0.57020000  0.81070000  0.68910000  1
  C  C285  1  0.54920000  0.74270000  0.69960000  1
  C  C286  1  0.54480000  0.69060000  0.66990000  1
  C  C287  1  0.56140000  0.70650000  0.62970000  1
  C  C288  1  0.08560000  0.52310000  0.72240000  1
  C  C289  1  0.35100000  0.55620000  0.59810000  1
  C  C290  1  0.13310000  0.57530000  0.72080000  1
  C  C291  1  0.09200000  0.46380000  0.69230000  1
  C  C292  1  0.22550000  0.58240000  0.61920000  1
  C  C293  1  0.17340000  0.58680000  0.64890000  1
  C  C294  1  0.18930000  0.57020000  0.68910000  1
  C  C295  1  0.25730000  0.54920000  0.69960000  1
  C  C296  1  0.30940000  0.54480000  0.66990000  1
  C  C297  1  0.29350000  0.56140000  0.62970000  1
  C  C298  1  0.91440000  0.47690000  0.72240000  1
  C  C299  1  0.64900000  0.44380000  0.59810000  1
  C  C300  1  0.86690000  0.42470000  0.72080000  1
  C  C301  1  0.90800000  0.53620000  0.69230000  1
  C  C302  1  0.77450000  0.41760000  0.61920000  1
  C  C303  1  0.82660000  0.41320000  0.64890000  1
  C  C304  1  0.81070000  0.42980000  0.68910000  1
  C  C305  1  0.74270000  0.45080000  0.69960000  1
  C  C306  1  0.69060000  0.45520000  0.66990000  1
  C  C307  1  0.70650000  0.43860000  0.62970000  1
  C  C308  1  0.97180000  0.47180000  0.25000000  1
  C  C309  1  0.87120000  0.37120000  0.25000000  1
  C  C310  1  0.81530000  0.31530000  0.25000000  1
  C  C311  1  0.02820000  0.52820000  0.25000000  1
  C  C312  1  0.12880000  0.62880000  0.25000000  1
  C  C313  1  0.18470000  0.68470000  0.25000000  1
  C  C314  1  0.52820000  0.97180000  0.25000000  1
  C  C315  1  0.62880000  0.87120000  0.25000000  1
  C  C316  1  0.68470000  0.81530000  0.25000000  1
  C  C317  1  0.47180000  0.02820000  0.25000000  1
  C  C318  1  0.37120000  0.12880000  0.25000000  1
  C  C319  1  0.31530000  0.18470000  0.25000000  1
  C  C320  1  0.02820000  0.52820000  0.75000000  1
  C  C321  1  0.12880000  0.62880000  0.75000000  1
  C  C322  1  0.18470000  0.68470000  0.75000000  1
  C  C323  1  0.97180000  0.47180000  0.75000000  1
  C  C324  1  0.87120000  0.37120000  0.75000000  1
  C  C325  1  0.81530000  0.31530000  0.75000000  1
  C  C326  1  0.47180000  0.02820000  0.75000000  1
  C  C327  1  0.37120000  0.12880000  0.75000000  1
  C  C328  1  0.31530000  0.18470000  0.75000000  1
  C  C329  1  0.52820000  0.97180000  0.75000000  1
  C  C330  1  0.62880000  0.87120000  0.75000000  1
  C  C331  1  0.68470000  0.81530000  0.75000000  1
  O  O332  1  0.97070000  0.09360000  0.10780000  1
  O  O333  1  0.93720000  0.17240000  0.06090000  1
  O  O334  1  0.03960000  0.08400000  0.03480000  1
  O  O335  1  0.02930000  0.90640000  0.10780000  1
  O  O336  1  0.06280000  0.82760000  0.06090000  1
  O  O337  1  0.96040000  0.91600000  0.03480000  1
  O  O338  1  0.90640000  0.97070000  0.10780000  1
  O  O339  1  0.82760000  0.93720000  0.06090000  1
  O  O340  1  0.91600000  0.03960000  0.03480000  1
  O  O341  1  0.09360000  0.02930000  0.10780000  1
  O  O342  1  0.17240000  0.06280000  0.06090000  1
  O  O343  1  0.08400000  0.96040000  0.03480000  1
  O  O344  1  0.52930000  0.59360000  0.39220000  1
  O  O345  1  0.56280000  0.67240000  0.43910000  1
  O  O346  1  0.46040000  0.58400000  0.46520000  1
  O  O347  1  0.47070000  0.40640000  0.39220000  1
  O  O348  1  0.43720000  0.32760000  0.43910000  1
  O  O349  1  0.53960000  0.41600000  0.46520000  1
  O  O350  1  0.59360000  0.47070000  0.39220000  1
  O  O351  1  0.67240000  0.43720000  0.43910000  1
  O  O352  1  0.58400000  0.53960000  0.46520000  1
  O  O353  1  0.40640000  0.52930000  0.39220000  1
  O  O354  1  0.32760000  0.56280000  0.43910000  1
  O  O355  1  0.41600000  0.46040000  0.46520000  1
  O  O356  1  0.02930000  0.90640000  0.89220000  1
  O  O357  1  0.06280000  0.82760000  0.93910000  1
  O  O358  1  0.96040000  0.91600000  0.96520000  1
  O  O359  1  0.97070000  0.09360000  0.89220000  1
  O  O360  1  0.93720000  0.17240000  0.93910000  1
  O  O361  1  0.03960000  0.08400000  0.96520000  1
  O  O362  1  0.09360000  0.02930000  0.89220000  1
  O  O363  1  0.17240000  0.06280000  0.93910000  1
  O  O364  1  0.08400000  0.96040000  0.96520000  1
  O  O365  1  0.90640000  0.97070000  0.89220000  1
  O  O366  1  0.82760000  0.93720000  0.93910000  1
  O  O367  1  0.91600000  0.03960000  0.96520000  1
  O  O368  1  0.47070000  0.40640000  0.60780000  1
  O  O369  1  0.43720000  0.32760000  0.56090000  1
  O  O370  1  0.53960000  0.41600000  0.53480000  1
  O  O371  1  0.52930000  0.59360000  0.60780000  1
  O  O372  1  0.56280000  0.67240000  0.56090000  1
  O  O373  1  0.46040000  0.58400000  0.53480000  1
  O  O374  1  0.40640000  0.52930000  0.60780000  1
  O  O375  1  0.32760000  0.56280000  0.56090000  1
  O  O376  1  0.41600000  0.46040000  0.53480000  1
  O  O377  1  0.59360000  0.47070000  0.60780000  1
  O  O378  1  0.67240000  0.43720000  0.56090000  1
  O  O379  1  0.58400000  0.53960000  0.53480000  1
