# generated using pymatgen
data_Zr3H34(C23O6)2
_symmetry_space_group_name_H-M   'P 1'
_cell_length_a   19.18800000
_cell_length_b   19.18800000
_cell_length_c   32.96400000
_cell_angle_alpha   90.00000000
_cell_angle_beta   90.00000000
_cell_angle_gamma   90.00000000
_symmetry_Int_Tables_number   1
_chemical_formula_structural   Zr3H34(C23O6)2
_chemical_formula_sum   'Zr12 H136 C184 O48'
_cell_volume   12136.66389562
_cell_formula_units_Z   4
loop_
 _symmetry_equiv_pos_site_id
 _symmetry_equiv_pos_as_xyz
  1  'x, y, z'
loop_
 _atom_site_type_symbol
 _atom_site_label
 _atom_site_symmetry_multiplicity
 _atom_site_fract_x
 _atom_site_fract_y
 _atom_site_fract_z
 _atom_site_occupancy
  Zr  Zr0  1  0.12260000  0.04598000  0.00000000  1
  Zr  Zr1  1  0.87740000  0.95402000  0.00000000  1
  Zr  Zr2  1  0.95402000  0.12260000  0.00000000  1
  Zr  Zr3  1  0.04598000  0.87740000  0.00000000  1
  Zr  Zr4  1  0.37740000  0.54598000  0.50000000  1
  Zr  Zr5  1  0.62260000  0.45402000  0.50000000  1
  Zr  Zr6  1  0.54598000  0.62260000  0.50000000  1
  Zr  Zr7  1  0.45402000  0.37740000  0.50000000  1
  Zr  Zr8  1  0.00000000  0.00000000  0.07426000  1
  Zr  Zr9  1  0.50000000  0.50000000  0.42574000  1
  Zr  Zr10  1  0.00000000  0.00000000  0.92574000  1
  Zr  Zr11  1  0.50000000  0.50000000  0.57426000  1
  H  H12  1  0.97580000  0.15410000  0.17560000  1
  H  H13  1  0.96230000  0.23130000  0.23000000  1
  H  H14  1  0.02000000  0.42700000  0.16620000  1
  H  H15  1  0.05090000  0.36360000  0.19020000  1
  H  H16  1  0.07350000  0.43970000  0.20140000  1
  H  H17  1  0.89940000  0.28620000  0.09030000  1
  H  H18  1  0.88470000  0.36160000  0.14520000  1
  H  H19  1  0.82120000  0.27810000  0.22910000  1
  H  H20  1  0.81090000  0.28840000  0.27590000  1
  H  H21  1  0.76680000  0.33250000  0.24510000  1
  H  H22  1  0.02420000  0.84590000  0.17560000  1
  H  H23  1  0.03770000  0.76870000  0.23000000  1
  H  H24  1  0.98000000  0.57300000  0.16620000  1
  H  H25  1  0.94910000  0.63640000  0.19020000  1
  H  H26  1  0.92650000  0.56030000  0.20140000  1
  H  H27  1  0.10060000  0.71380000  0.09030000  1
  H  H28  1  0.11530000  0.63840000  0.14520000  1
  H  H29  1  0.17880000  0.72190000  0.22910000  1
  H  H30  1  0.18910000  0.71160000  0.27590000  1
  H  H31  1  0.23320000  0.66750000  0.24510000  1
  H  H32  1  0.84590000  0.97580000  0.17560000  1
  H  H33  1  0.76870000  0.96230000  0.23000000  1
  H  H34  1  0.57300000  0.02000000  0.16620000  1
  H  H35  1  0.63640000  0.05090000  0.19020000  1
  H  H36  1  0.56030000  0.07350000  0.20140000  1
  H  H37  1  0.71380000  0.89940000  0.09030000  1
  H  H38  1  0.63840000  0.88470000  0.14520000  1
  H  H39  1  0.15410000  0.02420000  0.17560000  1
  H  H40  1  0.23130000  0.03770000  0.23000000  1
  H  H41  1  0.42700000  0.98000000  0.16620000  1
  H  H42  1  0.36360000  0.94910000  0.19020000  1
  H  H43  1  0.43970000  0.92650000  0.20140000  1
  H  H44  1  0.28620000  0.10060000  0.09030000  1
  H  H45  1  0.36160000  0.11530000  0.14520000  1
  H  H46  1  0.52420000  0.65410000  0.32440000  1
  H  H47  1  0.53770000  0.73130000  0.27000000  1
  H  H48  1  0.48000000  0.92700000  0.33380000  1
  H  H49  1  0.44910000  0.86360000  0.30980000  1
  H  H50  1  0.42650000  0.93970000  0.29860000  1
  H  H51  1  0.60060000  0.78620000  0.40970000  1
  H  H52  1  0.61530000  0.86160000  0.35480000  1
  H  H53  1  0.67880000  0.77810000  0.27090000  1
  H  H54  1  0.68910000  0.78840000  0.22410000  1
  H  H55  1  0.73320000  0.83250000  0.25490000  1
  H  H56  1  0.47580000  0.34590000  0.32440000  1
  H  H57  1  0.46230000  0.26870000  0.27000000  1
  H  H58  1  0.52000000  0.07300000  0.33380000  1
  H  H59  1  0.55090000  0.13640000  0.30980000  1
  H  H60  1  0.57350000  0.06030000  0.29860000  1
  H  H61  1  0.39940000  0.21380000  0.40970000  1
  H  H62  1  0.38470000  0.13840000  0.35480000  1
  H  H63  1  0.32120000  0.22190000  0.27090000  1
  H  H64  1  0.31090000  0.21160000  0.22410000  1
  H  H65  1  0.26680000  0.16750000  0.25490000  1
  H  H66  1  0.65410000  0.47580000  0.32440000  1
  H  H67  1  0.73130000  0.46230000  0.27000000  1
  H  H68  1  0.92700000  0.52000000  0.33380000  1
  H  H69  1  0.86360000  0.55090000  0.30980000  1
  H  H70  1  0.93970000  0.57350000  0.29860000  1
  H  H71  1  0.78620000  0.39940000  0.40970000  1
  H  H72  1  0.86160000  0.38470000  0.35480000  1
  H  H73  1  0.34590000  0.52420000  0.32440000  1
  H  H74  1  0.26870000  0.53770000  0.27000000  1
  H  H75  1  0.07300000  0.48000000  0.33380000  1
  H  H76  1  0.13640000  0.44910000  0.30980000  1
  H  H77  1  0.06030000  0.42650000  0.29860000  1
  H  H78  1  0.21380000  0.60060000  0.40970000  1
  H  H79  1  0.13840000  0.61530000  0.35480000  1
  H  H80  1  0.02420000  0.84590000  0.82440000  1
  H  H81  1  0.03770000  0.76870000  0.77000000  1
  H  H82  1  0.98000000  0.57300000  0.83380000  1
  H  H83  1  0.94910000  0.63640000  0.80980000  1
  H  H84  1  0.92650000  0.56030000  0.79860000  1
  H  H85  1  0.10060000  0.71380000  0.90970000  1
  H  H86  1  0.11530000  0.63840000  0.85480000  1
  H  H87  1  0.97580000  0.15410000  0.82440000  1
  H  H88  1  0.96230000  0.23130000  0.77000000  1
  H  H89  1  0.02000000  0.42700000  0.83380000  1
  H  H90  1  0.05090000  0.36360000  0.80980000  1
  H  H91  1  0.07350000  0.43970000  0.79860000  1
  H  H92  1  0.89940000  0.28620000  0.90970000  1
  H  H93  1  0.88470000  0.36160000  0.85480000  1
  H  H94  1  0.15410000  0.02420000  0.82440000  1
  H  H95  1  0.23130000  0.03770000  0.77000000  1
  H  H96  1  0.42700000  0.98000000  0.83380000  1
  H  H97  1  0.36360000  0.94910000  0.80980000  1
  H  H98  1  0.43970000  0.92650000  0.79860000  1
  H  H99  1  0.28620000  0.10060000  0.90970000  1
  H  H100  1  0.36160000  0.11530000  0.85480000  1
  H  H101  1  0.27810000  0.17880000  0.77090000  1
  H  H102  1  0.28840000  0.18910000  0.72410000  1
  H  H103  1  0.33250000  0.23320000  0.75490000  1
  H  H104  1  0.84590000  0.97580000  0.82440000  1
  H  H105  1  0.76870000  0.96230000  0.77000000  1
  H  H106  1  0.57300000  0.02000000  0.83380000  1
  H  H107  1  0.63640000  0.05090000  0.80980000  1
  H  H108  1  0.56030000  0.07350000  0.79860000  1
  H  H109  1  0.71380000  0.89940000  0.90970000  1
  H  H110  1  0.63840000  0.88470000  0.85480000  1
  H  H111  1  0.47580000  0.34590000  0.67560000  1
  H  H112  1  0.46230000  0.26870000  0.73000000  1
  H  H113  1  0.52000000  0.07300000  0.66620000  1
  H  H114  1  0.55090000  0.13640000  0.69020000  1
  H  H115  1  0.57350000  0.06030000  0.70140000  1
  H  H116  1  0.39940000  0.21380000  0.59030000  1
  H  H117  1  0.38470000  0.13840000  0.64520000  1
  H  H118  1  0.52420000  0.65410000  0.67560000  1
  H  H119  1  0.53770000  0.73130000  0.73000000  1
  H  H120  1  0.48000000  0.92700000  0.66620000  1
  H  H121  1  0.44910000  0.86360000  0.69020000  1
  H  H122  1  0.42650000  0.93970000  0.70140000  1
  H  H123  1  0.60060000  0.78620000  0.59030000  1
  H  H124  1  0.61530000  0.86160000  0.64520000  1
  H  H125  1  0.67880000  0.77810000  0.72910000  1
  H  H126  1  0.68910000  0.78840000  0.77590000  1
  H  H127  1  0.73320000  0.83250000  0.74510000  1
  H  H128  1  0.34590000  0.52420000  0.67560000  1
  H  H129  1  0.26870000  0.53770000  0.73000000  1
  H  H130  1  0.07300000  0.48000000  0.66620000  1
  H  H131  1  0.13640000  0.44910000  0.69020000  1
  H  H132  1  0.06030000  0.42650000  0.70140000  1
  H  H133  1  0.21380000  0.60060000  0.59030000  1
  H  H134  1  0.13840000  0.61530000  0.64520000  1
  H  H135  1  0.22190000  0.67880000  0.72910000  1
  H  H136  1  0.21160000  0.68910000  0.77590000  1
  H  H137  1  0.16750000  0.73320000  0.74510000  1
  H  H138  1  0.65410000  0.47580000  0.67560000  1
  H  H139  1  0.73130000  0.46230000  0.73000000  1
  H  H140  1  0.92700000  0.52000000  0.66620000  1
  H  H141  1  0.86360000  0.55090000  0.69020000  1
  H  H142  1  0.93970000  0.57350000  0.70140000  1
  H  H143  1  0.78620000  0.39940000  0.59030000  1
  H  H144  1  0.86160000  0.38470000  0.64520000  1
  H  H145  1  0.77810000  0.32120000  0.72910000  1
  H  H146  1  0.78840000  0.31090000  0.77590000  1
  H  H147  1  0.83250000  0.26680000  0.74510000  1
  C  C148  1  0.97560000  0.41560000  0.22260000  1
  C  C149  1  0.95660000  0.19770000  0.17040000  1
  C  C150  1  0.94200000  0.15360000  0.09960000  1
  C  C151  1  0.95110000  0.24280000  0.20340000  1
  C  C152  1  0.92250000  0.36550000  0.22240000  1
  C  C153  1  0.03560000  0.41110000  0.19230000  1
  C  C154  1  0.93640000  0.21110000  0.13050000  1
  C  C155  1  0.92600000  0.30810000  0.19070000  1
  C  C156  1  0.91080000  0.27490000  0.11690000  1
  C  C157  1  0.90530000  0.31870000  0.15040000  1
  C  C158  1  0.02440000  0.58440000  0.22260000  1
  C  C159  1  0.04340000  0.80230000  0.17040000  1
  C  C160  1  0.05800000  0.84640000  0.09960000  1
  C  C161  1  0.04890000  0.75720000  0.20340000  1
  C  C162  1  0.07750000  0.63450000  0.22240000  1
  C  C163  1  0.96440000  0.58890000  0.19230000  1
  C  C164  1  0.06360000  0.78890000  0.13050000  1
  C  C165  1  0.07400000  0.69190000  0.19070000  1
  C  C166  1  0.08920000  0.72510000  0.11690000  1
  C  C167  1  0.09470000  0.68130000  0.15040000  1
  C  C168  1  0.58440000  0.97560000  0.22260000  1
  C  C169  1  0.80230000  0.95660000  0.17040000  1
  C  C170  1  0.84640000  0.94200000  0.09960000  1
  C  C171  1  0.75720000  0.95110000  0.20340000  1
  C  C172  1  0.63450000  0.92250000  0.22240000  1
  C  C173  1  0.58890000  0.03560000  0.19230000  1
  C  C174  1  0.78890000  0.93640000  0.13050000  1
  C  C175  1  0.69190000  0.92600000  0.19070000  1
  C  C176  1  0.72510000  0.91080000  0.11690000  1
  C  C177  1  0.68130000  0.90530000  0.15040000  1
  C  C178  1  0.41560000  0.02440000  0.22260000  1
  C  C179  1  0.19770000  0.04340000  0.17040000  1
  C  C180  1  0.15360000  0.05800000  0.09960000  1
  C  C181  1  0.24280000  0.04890000  0.20340000  1
  C  C182  1  0.36550000  0.07750000  0.22240000  1
  C  C183  1  0.41110000  0.96440000  0.19230000  1
  C  C184  1  0.21110000  0.06360000  0.13050000  1
  C  C185  1  0.30810000  0.07400000  0.19070000  1
  C  C186  1  0.27490000  0.08920000  0.11690000  1
  C  C187  1  0.31870000  0.09470000  0.15040000  1
  C  C188  1  0.52440000  0.91560000  0.27740000  1
  C  C189  1  0.54340000  0.69770000  0.32960000  1
  C  C190  1  0.55800000  0.65360000  0.40040000  1
  C  C191  1  0.54890000  0.74280000  0.29660000  1
  C  C192  1  0.57750000  0.86550000  0.27760000  1
  C  C193  1  0.46440000  0.91110000  0.30770000  1
  C  C194  1  0.56360000  0.71110000  0.36950000  1
  C  C195  1  0.57400000  0.80810000  0.30930000  1
  C  C196  1  0.58920000  0.77490000  0.38310000  1
  C  C197  1  0.59470000  0.81870000  0.34960000  1
  C  C198  1  0.47560000  0.08440000  0.27740000  1
  C  C199  1  0.45660000  0.30230000  0.32960000  1
  C  C200  1  0.44200000  0.34640000  0.40040000  1
  C  C201  1  0.45110000  0.25720000  0.29660000  1
  C  C202  1  0.42250000  0.13450000  0.27760000  1
  C  C203  1  0.53560000  0.08890000  0.30770000  1
  C  C204  1  0.43640000  0.28890000  0.36950000  1
  C  C205  1  0.42600000  0.19190000  0.30930000  1
  C  C206  1  0.41080000  0.22510000  0.38310000  1
  C  C207  1  0.40530000  0.18130000  0.34960000  1
  C  C208  1  0.91560000  0.47560000  0.27740000  1
  C  C209  1  0.69770000  0.45660000  0.32960000  1
  C  C210  1  0.65360000  0.44200000  0.40040000  1
  C  C211  1  0.74280000  0.45110000  0.29660000  1
  C  C212  1  0.86550000  0.42250000  0.27760000  1
  C  C213  1  0.91110000  0.53560000  0.30770000  1
  C  C214  1  0.71110000  0.43640000  0.36950000  1
  C  C215  1  0.80810000  0.42600000  0.30930000  1
  C  C216  1  0.77490000  0.41080000  0.38310000  1
  C  C217  1  0.81870000  0.40530000  0.34960000  1
  C  C218  1  0.08440000  0.52440000  0.27740000  1
  C  C219  1  0.30230000  0.54340000  0.32960000  1
  C  C220  1  0.34640000  0.55800000  0.40040000  1
  C  C221  1  0.25720000  0.54890000  0.29660000  1
  C  C222  1  0.13450000  0.57750000  0.27760000  1
  C  C223  1  0.08890000  0.46440000  0.30770000  1
  C  C224  1  0.28890000  0.56360000  0.36950000  1
  C  C225  1  0.19190000  0.57400000  0.30930000  1
  C  C226  1  0.22510000  0.58920000  0.38310000  1
  C  C227  1  0.18130000  0.59470000  0.34960000  1
  C  C228  1  0.02440000  0.58440000  0.77740000  1
  C  C229  1  0.04340000  0.80230000  0.82960000  1
  C  C230  1  0.05800000  0.84640000  0.90040000  1
  C  C231  1  0.04890000  0.75720000  0.79660000  1
  C  C232  1  0.07750000  0.63450000  0.77760000  1
  C  C233  1  0.96440000  0.58890000  0.80770000  1
  C  C234  1  0.06360000  0.78890000  0.86950000  1
  C  C235  1  0.07400000  0.69190000  0.80930000  1
  C  C236  1  0.08920000  0.72510000  0.88310000  1
  C  C237  1  0.09470000  0.68130000  0.84960000  1
  C  C238  1  0.97560000  0.41560000  0.77740000  1
  C  C239  1  0.95660000  0.19770000  0.82960000  1
  C  C240  1  0.94200000  0.15360000  0.90040000  1
  C  C241  1  0.95110000  0.24280000  0.79660000  1
  C  C242  1  0.92250000  0.36550000  0.77760000  1
  C  C243  1  0.03560000  0.41110000  0.80770000  1
  C  C244  1  0.93640000  0.21110000  0.86950000  1
  C  C245  1  0.92600000  0.30810000  0.80930000  1
  C  C246  1  0.91080000  0.27490000  0.88310000  1
  C  C247  1  0.90530000  0.31870000  0.84960000  1
  C  C248  1  0.41560000  0.02440000  0.77740000  1
  C  C249  1  0.19770000  0.04340000  0.82960000  1
  C  C250  1  0.15360000  0.05800000  0.90040000  1
  C  C251  1  0.24280000  0.04890000  0.79660000  1
  C  C252  1  0.36550000  0.07750000  0.77760000  1
  C  C253  1  0.41110000  0.96440000  0.80770000  1
  C  C254  1  0.21110000  0.06360000  0.86950000  1
  C  C255  1  0.30810000  0.07400000  0.80930000  1
  C  C256  1  0.27490000  0.08920000  0.88310000  1
  C  C257  1  0.31870000  0.09470000  0.84960000  1
  C  C258  1  0.58440000  0.97560000  0.77740000  1
  C  C259  1  0.80230000  0.95660000  0.82960000  1
  C  C260  1  0.84640000  0.94200000  0.90040000  1
  C  C261  1  0.75720000  0.95110000  0.79660000  1
  C  C262  1  0.63450000  0.92250000  0.77760000  1
  C  C263  1  0.58890000  0.03560000  0.80770000  1
  C  C264  1  0.78890000  0.93640000  0.86950000  1
  C  C265  1  0.69190000  0.92600000  0.80930000  1
  C  C266  1  0.72510000  0.91080000  0.88310000  1
  C  C267  1  0.68130000  0.90530000  0.84960000  1
  C  C268  1  0.47560000  0.08440000  0.72260000  1
  C  C269  1  0.45660000  0.30230000  0.67040000  1
  C  C270  1  0.44200000  0.34640000  0.59960000  1
  C  C271  1  0.45110000  0.25720000  0.70340000  1
  C  C272  1  0.42250000  0.13450000  0.72240000  1
  C  C273  1  0.53560000  0.08890000  0.69230000  1
  C  C274  1  0.43640000  0.28890000  0.63050000  1
  C  C275  1  0.42600000  0.19190000  0.69070000  1
  C  C276  1  0.41080000  0.22510000  0.61690000  1
  C  C277  1  0.40530000  0.18130000  0.65040000  1
  C  C278  1  0.52440000  0.91560000  0.72260000  1
  C  C279  1  0.54340000  0.69770000  0.67040000  1
  C  C280  1  0.55800000  0.65360000  0.59960000  1
  C  C281  1  0.54890000  0.74280000  0.70340000  1
  C  C282  1  0.57750000  0.86550000  0.72240000  1
  C  C283  1  0.46440000  0.91110000  0.69230000  1
  C  C284  1  0.56360000  0.71110000  0.63050000  1
  C  C285  1  0.57400000  0.80810000  0.69070000  1
  C  C286  1  0.58920000  0.77490000  0.61690000  1
  C  C287  1  0.59470000  0.81870000  0.65040000  1
  C  C288  1  0.08440000  0.52440000  0.72260000  1
  C  C289  1  0.30230000  0.54340000  0.67040000  1
  C  C290  1  0.34640000  0.55800000  0.59960000  1
  C  C291  1  0.25720000  0.54890000  0.70340000  1
  C  C292  1  0.13450000  0.57750000  0.72240000  1
  C  C293  1  0.08890000  0.46440000  0.69230000  1
  C  C294  1  0.28890000  0.56360000  0.63050000  1
  C  C295  1  0.19190000  0.57400000  0.69070000  1
  C  C296  1  0.22510000  0.58920000  0.61690000  1
  C  C297  1  0.18130000  0.59470000  0.65040000  1
  C  C298  1  0.91560000  0.47560000  0.72260000  1
  C  C299  1  0.69770000  0.45660000  0.67040000  1
  C  C300  1  0.65360000  0.44200000  0.59960000  1
  C  C301  1  0.74280000  0.45110000  0.70340000  1
  C  C302  1  0.86550000  0.42250000  0.72240000  1
  C  C303  1  0.91110000  0.53560000  0.69230000  1
  C  C304  1  0.71110000  0.43640000  0.63050000  1
  C  C305  1  0.80810000  0.42600000  0.69070000  1
  C  C306  1  0.77490000  0.41080000  0.61690000  1
  C  C307  1  0.81870000  0.40530000  0.65040000  1
  C  C308  1  0.97220000  0.47220000  0.25000000  1
  C  C309  1  0.86690000  0.36690000  0.25000000  1
  C  C310  1  0.81150000  0.31150000  0.25000000  1
  C  C311  1  0.02780000  0.52780000  0.25000000  1
  C  C312  1  0.13310000  0.63310000  0.25000000  1
  C  C313  1  0.18850000  0.68850000  0.25000000  1
  C  C314  1  0.52780000  0.97220000  0.25000000  1
  C  C315  1  0.63310000  0.86690000  0.25000000  1
  C  C316  1  0.68850000  0.81150000  0.25000000  1
  C  C317  1  0.47220000  0.02780000  0.25000000  1
  C  C318  1  0.36690000  0.13310000  0.25000000  1
  C  C319  1  0.31150000  0.18850000  0.25000000  1
  C  C320  1  0.02780000  0.52780000  0.75000000  1
  C  C321  1  0.13310000  0.63310000  0.75000000  1
  C  C322  1  0.18850000  0.68850000  0.75000000  1
  C  C323  1  0.97220000  0.47220000  0.75000000  1
  C  C324  1  0.86690000  0.36690000  0.75000000  1
  C  C325  1  0.81150000  0.31150000  0.75000000  1
  C  C326  1  0.47220000  0.02780000  0.75000000  1
  C  C327  1  0.36690000  0.13310000  0.75000000  1
  C  C328  1  0.31150000  0.18850000  0.75000000  1
  C  C329  1  0.52780000  0.97220000  0.75000000  1
  C  C330  1  0.63310000  0.86690000  0.75000000  1
  C  C331  1  0.68850000  0.81150000  0.75000000  1
  O  O332  1  0.97080000  0.09220000  0.11000000  1
  O  O333  1  0.94020000  0.17330000  0.06140000  1
  O  O334  1  0.03680000  0.08430000  0.03640000  1
  O  O335  1  0.02920000  0.90780000  0.11000000  1
  O  O336  1  0.05980000  0.82670000  0.06140000  1
  O  O337  1  0.96320000  0.91570000  0.03640000  1
  O  O338  1  0.90780000  0.97080000  0.11000000  1
  O  O339  1  0.82670000  0.94020000  0.06140000  1
  O  O340  1  0.91570000  0.03680000  0.03640000  1
  O  O341  1  0.09220000  0.02920000  0.11000000  1
  O  O342  1  0.17330000  0.05980000  0.06140000  1
  O  O343  1  0.08430000  0.96320000  0.03640000  1
  O  O344  1  0.52920000  0.59220000  0.39000000  1
  O  O345  1  0.55980000  0.67330000  0.43860000  1
  O  O346  1  0.46320000  0.58430000  0.46360000  1
  O  O347  1  0.47080000  0.40780000  0.39000000  1
  O  O348  1  0.44020000  0.32670000  0.43860000  1
  O  O349  1  0.53680000  0.41570000  0.46360000  1
  O  O350  1  0.59220000  0.47080000  0.39000000  1
  O  O351  1  0.67330000  0.44020000  0.43860000  1
  O  O352  1  0.58430000  0.53680000  0.46360000  1
  O  O353  1  0.40780000  0.52920000  0.39000000  1
  O  O354  1  0.32670000  0.55980000  0.43860000  1
  O  O355  1  0.41570000  0.46320000  0.46360000  1
  O  O356  1  0.02920000  0.90780000  0.89000000  1
  O  O357  1  0.05980000  0.82670000  0.93860000  1
  O  O358  1  0.96320000  0.91570000  0.96360000  1
  O  O359  1  0.97080000  0.09220000  0.89000000  1
  O  O360  1  0.94020000  0.17330000  0.93860000  1
  O  O361  1  0.03680000  0.08430000  0.96360000  1
  O  O362  1  0.09220000  0.02920000  0.89000000  1
  O  O363  1  0.17330000  0.05980000  0.93860000  1
  O  O364  1  0.08430000  0.96320000  0.96360000  1
  O  O365  1  0.90780000  0.97080000  0.89000000  1
  O  O366  1  0.82670000  0.94020000  0.93860000  1
  O  O367  1  0.91570000  0.03680000  0.96360000  1
  O  O368  1  0.47080000  0.40780000  0.61000000  1
  O  O369  1  0.44020000  0.32670000  0.56140000  1
  O  O370  1  0.53680000  0.41570000  0.53640000  1
  O  O371  1  0.52920000  0.59220000  0.61000000  1
  O  O372  1  0.55980000  0.67330000  0.56140000  1
  O  O373  1  0.46320000  0.58430000  0.53640000  1
  O  O374  1  0.40780000  0.52920000  0.61000000  1
  O  O375  1  0.32670000  0.55980000  0.56140000  1
  O  O376  1  0.41570000  0.46320000  0.53640000  1
  O  O377  1  0.59220000  0.47080000  0.61000000  1
  O  O378  1  0.67330000  0.44020000  0.56140000  1
  O  O379  1  0.58430000  0.53680000  0.53640000  1
