# generated using pymatgen
data_Zr3H34(C23O6)2
_symmetry_space_group_name_H-M   'P 1'
_cell_length_a   19.28000000
_cell_length_b   19.28000000
_cell_length_c   32.89000000
_cell_angle_alpha   90.00000000
_cell_angle_beta   90.00000000
_cell_angle_gamma   90.00000000
_symmetry_Int_Tables_number   1
_chemical_formula_structural   Zr3H34(C23O6)2
_chemical_formula_sum   'Zr12 H136 C184 O48'
_cell_volume   12225.81817600
_cell_formula_units_Z   4
loop_
 _symmetry_equiv_pos_site_id
 _symmetry_equiv_pos_as_xyz
  1  'x, y, z'
loop_
 _atom_site_type_symbol
 _atom_site_label
 _atom_site_symmetry_multiplicity
 _atom_site_fract_x
 _atom_site_fract_y
 _atom_site_fract_z
 _atom_site_occupancy
  Zr  Zr0  1  0.12287000  0.04235000  0.00000000  1
  Zr  Zr1  1  0.87713000  0.95765000  0.00000000  1
  Zr  Zr2  1  0.95765000  0.12287000  0.00000000  1
  Zr  Zr3  1  0.04235000  0.87713000  0.00000000  1
  Zr  Zr4  1  0.37713000  0.54235000  0.50000000  1
  Zr  Zr5  1  0.62287000  0.45765000  0.50000000  1
  Zr  Zr6  1  0.54235000  0.62287000  0.50000000  1
  Zr  Zr7  1  0.45765000  0.37713000  0.50000000  1
  Zr  Zr8  1  0.00000000  0.00000000  0.07450000  1
  Zr  Zr9  1  0.50000000  0.50000000  0.42550000  1
  Zr  Zr10  1  0.00000000  0.00000000  0.92550000  1
  Zr  Zr11  1  0.50000000  0.50000000  0.57450000  1
  H  H12  1  0.98060000  0.15360000  0.17590000  1
  H  H13  1  0.97070000  0.23320000  0.22980000  1
  H  H14  1  0.05770000  0.45650000  0.19020000  1
  H  H15  1  0.02090000  0.39550000  0.16720000  1
  H  H16  1  0.07040000  0.37960000  0.20380000  1
  H  H17  1  0.89500000  0.28270000  0.09020000  1
  H  H18  1  0.88560000  0.35770000  0.14590000  1
  H  H19  1  0.82210000  0.28010000  0.22870000  1
  H  H20  1  0.81290000  0.28930000  0.27570000  1
  H  H21  1  0.76830000  0.33390000  0.24560000  1
  H  H22  1  0.01940000  0.84640000  0.17590000  1
  H  H23  1  0.02930000  0.76680000  0.22980000  1
  H  H24  1  0.94230000  0.54350000  0.19020000  1
  H  H25  1  0.97910000  0.60450000  0.16720000  1
  H  H26  1  0.92960000  0.62040000  0.20380000  1
  H  H27  1  0.10500000  0.71730000  0.09020000  1
  H  H28  1  0.11440000  0.64230000  0.14590000  1
  H  H29  1  0.17790000  0.71990000  0.22870000  1
  H  H30  1  0.18710000  0.71070000  0.27570000  1
  H  H31  1  0.23170000  0.66610000  0.24560000  1
  H  H32  1  0.84640000  0.98060000  0.17590000  1
  H  H33  1  0.76680000  0.97070000  0.22980000  1
  H  H34  1  0.54350000  0.05770000  0.19020000  1
  H  H35  1  0.60450000  0.02090000  0.16720000  1
  H  H36  1  0.62040000  0.07040000  0.20380000  1
  H  H37  1  0.71730000  0.89500000  0.09020000  1
  H  H38  1  0.64230000  0.88560000  0.14590000  1
  H  H39  1  0.15360000  0.01940000  0.17590000  1
  H  H40  1  0.23320000  0.02930000  0.22980000  1
  H  H41  1  0.45650000  0.94230000  0.19020000  1
  H  H42  1  0.39550000  0.97910000  0.16720000  1
  H  H43  1  0.37960000  0.92960000  0.20380000  1
  H  H44  1  0.28270000  0.10500000  0.09020000  1
  H  H45  1  0.35770000  0.11440000  0.14590000  1
  H  H46  1  0.51940000  0.65360000  0.32410000  1
  H  H47  1  0.52930000  0.73320000  0.27020000  1
  H  H48  1  0.44230000  0.95650000  0.30980000  1
  H  H49  1  0.47910000  0.89550000  0.33280000  1
  H  H50  1  0.42960000  0.87960000  0.29620000  1
  H  H51  1  0.60500000  0.78270000  0.40980000  1
  H  H52  1  0.61440000  0.85770000  0.35410000  1
  H  H53  1  0.67790000  0.78010000  0.27130000  1
  H  H54  1  0.68710000  0.78930000  0.22430000  1
  H  H55  1  0.73170000  0.83390000  0.25440000  1
  H  H56  1  0.48060000  0.34640000  0.32410000  1
  H  H57  1  0.47070000  0.26680000  0.27020000  1
  H  H58  1  0.55770000  0.04350000  0.30980000  1
  H  H59  1  0.52090000  0.10450000  0.33280000  1
  H  H60  1  0.57040000  0.12040000  0.29620000  1
  H  H61  1  0.39500000  0.21730000  0.40980000  1
  H  H62  1  0.38560000  0.14230000  0.35410000  1
  H  H63  1  0.32210000  0.21990000  0.27130000  1
  H  H64  1  0.31290000  0.21070000  0.22430000  1
  H  H65  1  0.26830000  0.16610000  0.25440000  1
  H  H66  1  0.65360000  0.48060000  0.32410000  1
  H  H67  1  0.73320000  0.47070000  0.27020000  1
  H  H68  1  0.95650000  0.55770000  0.30980000  1
  H  H69  1  0.89550000  0.52090000  0.33280000  1
  H  H70  1  0.87960000  0.57040000  0.29620000  1
  H  H71  1  0.78270000  0.39500000  0.40980000  1
  H  H72  1  0.85770000  0.38560000  0.35410000  1
  H  H73  1  0.34640000  0.51940000  0.32410000  1
  H  H74  1  0.26680000  0.52930000  0.27020000  1
  H  H75  1  0.04350000  0.44230000  0.30980000  1
  H  H76  1  0.10450000  0.47910000  0.33280000  1
  H  H77  1  0.12040000  0.42960000  0.29620000  1
  H  H78  1  0.21730000  0.60500000  0.40980000  1
  H  H79  1  0.14230000  0.61440000  0.35410000  1
  H  H80  1  0.01940000  0.84640000  0.82410000  1
  H  H81  1  0.02930000  0.76680000  0.77020000  1
  H  H82  1  0.94230000  0.54350000  0.80980000  1
  H  H83  1  0.97910000  0.60450000  0.83280000  1
  H  H84  1  0.92960000  0.62040000  0.79620000  1
  H  H85  1  0.10500000  0.71730000  0.90980000  1
  H  H86  1  0.11440000  0.64230000  0.85410000  1
  H  H87  1  0.98060000  0.15360000  0.82410000  1
  H  H88  1  0.97070000  0.23320000  0.77020000  1
  H  H89  1  0.05770000  0.45650000  0.80980000  1
  H  H90  1  0.02090000  0.39550000  0.83280000  1
  H  H91  1  0.07040000  0.37960000  0.79620000  1
  H  H92  1  0.89500000  0.28270000  0.90980000  1
  H  H93  1  0.88560000  0.35770000  0.85410000  1
  H  H94  1  0.82210000  0.28010000  0.77130000  1
  H  H95  1  0.81290000  0.28930000  0.72430000  1
  H  H96  1  0.76830000  0.33390000  0.75440000  1
  H  H97  1  0.15360000  0.01940000  0.82410000  1
  H  H98  1  0.23320000  0.02930000  0.77020000  1
  H  H99  1  0.45650000  0.94230000  0.80980000  1
  H  H100  1  0.39550000  0.97910000  0.83280000  1
  H  H101  1  0.37960000  0.92960000  0.79620000  1
  H  H102  1  0.28270000  0.10500000  0.90980000  1
  H  H103  1  0.35770000  0.11440000  0.85410000  1
  H  H104  1  0.28010000  0.17790000  0.77130000  1
  H  H105  1  0.28930000  0.18710000  0.72430000  1
  H  H106  1  0.33390000  0.23170000  0.75440000  1
  H  H107  1  0.84640000  0.98060000  0.82410000  1
  H  H108  1  0.76680000  0.97070000  0.77020000  1
  H  H109  1  0.54350000  0.05770000  0.80980000  1
  H  H110  1  0.60450000  0.02090000  0.83280000  1
  H  H111  1  0.62040000  0.07040000  0.79620000  1
  H  H112  1  0.71730000  0.89500000  0.90980000  1
  H  H113  1  0.64230000  0.88560000  0.85410000  1
  H  H114  1  0.71990000  0.82210000  0.77130000  1
  H  H115  1  0.71070000  0.81290000  0.72430000  1
  H  H116  1  0.66610000  0.76830000  0.75440000  1
  H  H117  1  0.48060000  0.34640000  0.67590000  1
  H  H118  1  0.47070000  0.26680000  0.72980000  1
  H  H119  1  0.55770000  0.04350000  0.69020000  1
  H  H120  1  0.52090000  0.10450000  0.66720000  1
  H  H121  1  0.57040000  0.12040000  0.70380000  1
  H  H122  1  0.39500000  0.21730000  0.59020000  1
  H  H123  1  0.38560000  0.14230000  0.64590000  1
  H  H124  1  0.51940000  0.65360000  0.67590000  1
  H  H125  1  0.52930000  0.73320000  0.72980000  1
  H  H126  1  0.44230000  0.95650000  0.69020000  1
  H  H127  1  0.47910000  0.89550000  0.66720000  1
  H  H128  1  0.42960000  0.87960000  0.70380000  1
  H  H129  1  0.60500000  0.78270000  0.59020000  1
  H  H130  1  0.61440000  0.85770000  0.64590000  1
  H  H131  1  0.34640000  0.51940000  0.67590000  1
  H  H132  1  0.26680000  0.52930000  0.72980000  1
  H  H133  1  0.04350000  0.44230000  0.69020000  1
  H  H134  1  0.10450000  0.47910000  0.66720000  1
  H  H135  1  0.12040000  0.42960000  0.70380000  1
  H  H136  1  0.21730000  0.60500000  0.59020000  1
  H  H137  1  0.14230000  0.61440000  0.64590000  1
  H  H138  1  0.21990000  0.67790000  0.72870000  1
  H  H139  1  0.21070000  0.68710000  0.77570000  1
  H  H140  1  0.16610000  0.73170000  0.74560000  1
  H  H141  1  0.65360000  0.48060000  0.67590000  1
  H  H142  1  0.73320000  0.47070000  0.72980000  1
  H  H143  1  0.95650000  0.55770000  0.69020000  1
  H  H144  1  0.89550000  0.52090000  0.66720000  1
  H  H145  1  0.87960000  0.57040000  0.70380000  1
  H  H146  1  0.78270000  0.39500000  0.59020000  1
  H  H147  1  0.85770000  0.38560000  0.64590000  1
  C  C148  1  0.97600000  0.41640000  0.22220000  1
  C  C149  1  0.96080000  0.19680000  0.17090000  1
  C  C150  1  0.94340000  0.15120000  0.10160000  1
  C  C151  1  0.95670000  0.24330000  0.20340000  1
  C  C152  1  0.92250000  0.36640000  0.22140000  1
  C  C153  1  0.03680000  0.41150000  0.19320000  1
  C  C154  1  0.93720000  0.21040000  0.13150000  1
  C  C155  1  0.92880000  0.30740000  0.19120000  1
  C  C156  1  0.90880000  0.27240000  0.11660000  1
  C  C157  1  0.90650000  0.31500000  0.15090000  1
  C  C158  1  0.02400000  0.58360000  0.22220000  1
  C  C159  1  0.03920000  0.80320000  0.17090000  1
  C  C160  1  0.05660000  0.84880000  0.10160000  1
  C  C161  1  0.04330000  0.75670000  0.20340000  1
  C  C162  1  0.07750000  0.63360000  0.22140000  1
  C  C163  1  0.96320000  0.58850000  0.19320000  1
  C  C164  1  0.06280000  0.78960000  0.13150000  1
  C  C165  1  0.07120000  0.69260000  0.19120000  1
  C  C166  1  0.09120000  0.72760000  0.11660000  1
  C  C167  1  0.09350000  0.68500000  0.15090000  1
  C  C168  1  0.58360000  0.97600000  0.22220000  1
  C  C169  1  0.80320000  0.96080000  0.17090000  1
  C  C170  1  0.84880000  0.94340000  0.10160000  1
  C  C171  1  0.75670000  0.95670000  0.20340000  1
  C  C172  1  0.63360000  0.92250000  0.22140000  1
  C  C173  1  0.58850000  0.03680000  0.19320000  1
  C  C174  1  0.78960000  0.93720000  0.13150000  1
  C  C175  1  0.69260000  0.92880000  0.19120000  1
  C  C176  1  0.72760000  0.90880000  0.11660000  1
  C  C177  1  0.68500000  0.90650000  0.15090000  1
  C  C178  1  0.41640000  0.02400000  0.22220000  1
  C  C179  1  0.19680000  0.03920000  0.17090000  1
  C  C180  1  0.15120000  0.05660000  0.10160000  1
  C  C181  1  0.24330000  0.04330000  0.20340000  1
  C  C182  1  0.36640000  0.07750000  0.22140000  1
  C  C183  1  0.41150000  0.96320000  0.19320000  1
  C  C184  1  0.21040000  0.06280000  0.13150000  1
  C  C185  1  0.30740000  0.07120000  0.19120000  1
  C  C186  1  0.27240000  0.09120000  0.11660000  1
  C  C187  1  0.31500000  0.09350000  0.15090000  1
  C  C188  1  0.52400000  0.91640000  0.27780000  1
  C  C189  1  0.53920000  0.69680000  0.32910000  1
  C  C190  1  0.55660000  0.65120000  0.39840000  1
  C  C191  1  0.54330000  0.74330000  0.29660000  1
  C  C192  1  0.57750000  0.86640000  0.27860000  1
  C  C193  1  0.46320000  0.91150000  0.30680000  1
  C  C194  1  0.56280000  0.71040000  0.36850000  1
  C  C195  1  0.57120000  0.80740000  0.30880000  1
  C  C196  1  0.59120000  0.77240000  0.38340000  1
  C  C197  1  0.59350000  0.81500000  0.34910000  1
  C  C198  1  0.47600000  0.08360000  0.27780000  1
  C  C199  1  0.46080000  0.30320000  0.32910000  1
  C  C200  1  0.44340000  0.34880000  0.39840000  1
  C  C201  1  0.45670000  0.25670000  0.29660000  1
  C  C202  1  0.42250000  0.13360000  0.27860000  1
  C  C203  1  0.53680000  0.08850000  0.30680000  1
  C  C204  1  0.43720000  0.28960000  0.36850000  1
  C  C205  1  0.42880000  0.19260000  0.30880000  1
  C  C206  1  0.40880000  0.22760000  0.38340000  1
  C  C207  1  0.40650000  0.18500000  0.34910000  1
  C  C208  1  0.91640000  0.47600000  0.27780000  1
  C  C209  1  0.69680000  0.46080000  0.32910000  1
  C  C210  1  0.65120000  0.44340000  0.39840000  1
  C  C211  1  0.74330000  0.45670000  0.29660000  1
  C  C212  1  0.86640000  0.42250000  0.27860000  1
  C  C213  1  0.91150000  0.53680000  0.30680000  1
  C  C214  1  0.71040000  0.43720000  0.36850000  1
  C  C215  1  0.80740000  0.42880000  0.30880000  1
  C  C216  1  0.77240000  0.40880000  0.38340000  1
  C  C217  1  0.81500000  0.40650000  0.34910000  1
  C  C218  1  0.08360000  0.52400000  0.27780000  1
  C  C219  1  0.30320000  0.53920000  0.32910000  1
  C  C220  1  0.34880000  0.55660000  0.39840000  1
  C  C221  1  0.25670000  0.54330000  0.29660000  1
  C  C222  1  0.13360000  0.57750000  0.27860000  1
  C  C223  1  0.08850000  0.46320000  0.30680000  1
  C  C224  1  0.28960000  0.56280000  0.36850000  1
  C  C225  1  0.19260000  0.57120000  0.30880000  1
  C  C226  1  0.22760000  0.59120000  0.38340000  1
  C  C227  1  0.18500000  0.59350000  0.34910000  1
  C  C228  1  0.02400000  0.58360000  0.77780000  1
  C  C229  1  0.03920000  0.80320000  0.82910000  1
  C  C230  1  0.05660000  0.84880000  0.89840000  1
  C  C231  1  0.04330000  0.75670000  0.79660000  1
  C  C232  1  0.07750000  0.63360000  0.77860000  1
  C  C233  1  0.96320000  0.58850000  0.80680000  1
  C  C234  1  0.06280000  0.78960000  0.86850000  1
  C  C235  1  0.07120000  0.69260000  0.80880000  1
  C  C236  1  0.09120000  0.72760000  0.88340000  1
  C  C237  1  0.09350000  0.68500000  0.84910000  1
  C  C238  1  0.97600000  0.41640000  0.77780000  1
  C  C239  1  0.96080000  0.19680000  0.82910000  1
  C  C240  1  0.94340000  0.15120000  0.89840000  1
  C  C241  1  0.95670000  0.24330000  0.79660000  1
  C  C242  1  0.92250000  0.36640000  0.77860000  1
  C  C243  1  0.03680000  0.41150000  0.80680000  1
  C  C244  1  0.93720000  0.21040000  0.86850000  1
  C  C245  1  0.92880000  0.30740000  0.80880000  1
  C  C246  1  0.90880000  0.27240000  0.88340000  1
  C  C247  1  0.90650000  0.31500000  0.84910000  1
  C  C248  1  0.41640000  0.02400000  0.77780000  1
  C  C249  1  0.19680000  0.03920000  0.82910000  1
  C  C250  1  0.15120000  0.05660000  0.89840000  1
  C  C251  1  0.24330000  0.04330000  0.79660000  1
  C  C252  1  0.36640000  0.07750000  0.77860000  1
  C  C253  1  0.41150000  0.96320000  0.80680000  1
  C  C254  1  0.21040000  0.06280000  0.86850000  1
  C  C255  1  0.30740000  0.07120000  0.80880000  1
  C  C256  1  0.27240000  0.09120000  0.88340000  1
  C  C257  1  0.31500000  0.09350000  0.84910000  1
  C  C258  1  0.58360000  0.97600000  0.77780000  1
  C  C259  1  0.80320000  0.96080000  0.82910000  1
  C  C260  1  0.84880000  0.94340000  0.89840000  1
  C  C261  1  0.75670000  0.95670000  0.79660000  1
  C  C262  1  0.63360000  0.92250000  0.77860000  1
  C  C263  1  0.58850000  0.03680000  0.80680000  1
  C  C264  1  0.78960000  0.93720000  0.86850000  1
  C  C265  1  0.69260000  0.92880000  0.80880000  1
  C  C266  1  0.72760000  0.90880000  0.88340000  1
  C  C267  1  0.68500000  0.90650000  0.84910000  1
  C  C268  1  0.47600000  0.08360000  0.72220000  1
  C  C269  1  0.46080000  0.30320000  0.67090000  1
  C  C270  1  0.44340000  0.34880000  0.60160000  1
  C  C271  1  0.45670000  0.25670000  0.70340000  1
  C  C272  1  0.42250000  0.13360000  0.72140000  1
  C  C273  1  0.53680000  0.08850000  0.69320000  1
  C  C274  1  0.43720000  0.28960000  0.63150000  1
  C  C275  1  0.42880000  0.19260000  0.69120000  1
  C  C276  1  0.40880000  0.22760000  0.61660000  1
  C  C277  1  0.40650000  0.18500000  0.65090000  1
  C  C278  1  0.52400000  0.91640000  0.72220000  1
  C  C279  1  0.53920000  0.69680000  0.67090000  1
  C  C280  1  0.55660000  0.65120000  0.60160000  1
  C  C281  1  0.54330000  0.74330000  0.70340000  1
  C  C282  1  0.57750000  0.86640000  0.72140000  1
  C  C283  1  0.46320000  0.91150000  0.69320000  1
  C  C284  1  0.56280000  0.71040000  0.63150000  1
  C  C285  1  0.57120000  0.80740000  0.69120000  1
  C  C286  1  0.59120000  0.77240000  0.61660000  1
  C  C287  1  0.59350000  0.81500000  0.65090000  1
  C  C288  1  0.08360000  0.52400000  0.72220000  1
  C  C289  1  0.30320000  0.53920000  0.67090000  1
  C  C290  1  0.34880000  0.55660000  0.60160000  1
  C  C291  1  0.25670000  0.54330000  0.70340000  1
  C  C292  1  0.13360000  0.57750000  0.72140000  1
  C  C293  1  0.08850000  0.46320000  0.69320000  1
  C  C294  1  0.28960000  0.56280000  0.63150000  1
  C  C295  1  0.19260000  0.57120000  0.69120000  1
  C  C296  1  0.22760000  0.59120000  0.61660000  1
  C  C297  1  0.18500000  0.59350000  0.65090000  1
  C  C298  1  0.91640000  0.47600000  0.72220000  1
  C  C299  1  0.69680000  0.46080000  0.67090000  1
  C  C300  1  0.65120000  0.44340000  0.60160000  1
  C  C301  1  0.74330000  0.45670000  0.70340000  1
  C  C302  1  0.86640000  0.42250000  0.72140000  1
  C  C303  1  0.91150000  0.53680000  0.69320000  1
  C  C304  1  0.71040000  0.43720000  0.63150000  1
  C  C305  1  0.80740000  0.42880000  0.69120000  1
  C  C306  1  0.77240000  0.40880000  0.61660000  1
  C  C307  1  0.81500000  0.40650000  0.65090000  1
  C  C308  1  0.97230000  0.47230000  0.25000000  1
  C  C309  1  0.86810000  0.36810000  0.25000000  1
  C  C310  1  0.81280000  0.31280000  0.25000000  1
  C  C311  1  0.02770000  0.52770000  0.25000000  1
  C  C312  1  0.13190000  0.63190000  0.25000000  1
  C  C313  1  0.18720000  0.68720000  0.25000000  1
  C  C314  1  0.52770000  0.97230000  0.25000000  1
  C  C315  1  0.63190000  0.86810000  0.25000000  1
  C  C316  1  0.68720000  0.81280000  0.25000000  1
  C  C317  1  0.47230000  0.02770000  0.25000000  1
  C  C318  1  0.36810000  0.13190000  0.25000000  1
  C  C319  1  0.31280000  0.18720000  0.25000000  1
  C  C320  1  0.02770000  0.52770000  0.75000000  1
  C  C321  1  0.13190000  0.63190000  0.75000000  1
  C  C322  1  0.18720000  0.68720000  0.75000000  1
  C  C323  1  0.97230000  0.47230000  0.75000000  1
  C  C324  1  0.86810000  0.36810000  0.75000000  1
  C  C325  1  0.81280000  0.31280000  0.75000000  1
  C  C326  1  0.47230000  0.02770000  0.75000000  1
  C  C327  1  0.36810000  0.13190000  0.75000000  1
  C  C328  1  0.31280000  0.18720000  0.75000000  1
  C  C329  1  0.52770000  0.97230000  0.75000000  1
  C  C330  1  0.63190000  0.86810000  0.75000000  1
  C  C331  1  0.68720000  0.81280000  0.75000000  1
  O  O332  1  0.97210000  0.09200000  0.10960000  1
  O  O333  1  0.93940000  0.17240000  0.06140000  1
  O  O334  1  0.03910000  0.08180000  0.03620000  1
  O  O335  1  0.02790000  0.90800000  0.10960000  1
  O  O336  1  0.06060000  0.82760000  0.06140000  1
  O  O337  1  0.96090000  0.91820000  0.03620000  1
  O  O338  1  0.90800000  0.97210000  0.10960000  1
  O  O339  1  0.82760000  0.93940000  0.06140000  1
  O  O340  1  0.91820000  0.03910000  0.03620000  1
  O  O341  1  0.09200000  0.02790000  0.10960000  1
  O  O342  1  0.17240000  0.06060000  0.06140000  1
  O  O343  1  0.08180000  0.96090000  0.03620000  1
  O  O344  1  0.52790000  0.59200000  0.39040000  1
  O  O345  1  0.56060000  0.67240000  0.43860000  1
  O  O346  1  0.46090000  0.58180000  0.46380000  1
  O  O347  1  0.47210000  0.40800000  0.39040000  1
  O  O348  1  0.43940000  0.32760000  0.43860000  1
  O  O349  1  0.53910000  0.41820000  0.46380000  1
  O  O350  1  0.59200000  0.47210000  0.39040000  1
  O  O351  1  0.67240000  0.43940000  0.43860000  1
  O  O352  1  0.58180000  0.53910000  0.46380000  1
  O  O353  1  0.40800000  0.52790000  0.39040000  1
  O  O354  1  0.32760000  0.56060000  0.43860000  1
  O  O355  1  0.41820000  0.46090000  0.46380000  1
  O  O356  1  0.02790000  0.90800000  0.89040000  1
  O  O357  1  0.06060000  0.82760000  0.93860000  1
  O  O358  1  0.96090000  0.91820000  0.96380000  1
  O  O359  1  0.97210000  0.09200000  0.89040000  1
  O  O360  1  0.93940000  0.17240000  0.93860000  1
  O  O361  1  0.03910000  0.08180000  0.96380000  1
  O  O362  1  0.09200000  0.02790000  0.89040000  1
  O  O363  1  0.17240000  0.06060000  0.93860000  1
  O  O364  1  0.08180000  0.96090000  0.96380000  1
  O  O365  1  0.90800000  0.97210000  0.89040000  1
  O  O366  1  0.82760000  0.93940000  0.93860000  1
  O  O367  1  0.91820000  0.03910000  0.96380000  1
  O  O368  1  0.47210000  0.40800000  0.60960000  1
  O  O369  1  0.43940000  0.32760000  0.56140000  1
  O  O370  1  0.53910000  0.41820000  0.53620000  1
  O  O371  1  0.52790000  0.59200000  0.60960000  1
  O  O372  1  0.56060000  0.67240000  0.56140000  1
  O  O373  1  0.46090000  0.58180000  0.53620000  1
  O  O374  1  0.40800000  0.52790000  0.60960000  1
  O  O375  1  0.32760000  0.56060000  0.56140000  1
  O  O376  1  0.41820000  0.46090000  0.53620000  1
  O  O377  1  0.59200000  0.47210000  0.60960000  1
  O  O378  1  0.67240000  0.43940000  0.56140000  1
  O  O379  1  0.58180000  0.53910000  0.53620000  1
