# generated using pymatgen
data_Zr3H34(C23O6)2
_symmetry_space_group_name_H-M   'P 1'
_cell_length_a   19.01730000
_cell_length_b   19.01730000
_cell_length_c   32.87830000
_cell_angle_alpha   90.00000000
_cell_angle_beta   90.00000000
_cell_angle_gamma   90.00000000
_symmetry_Int_Tables_number   1
_chemical_formula_structural   Zr3H34(C23O6)2
_chemical_formula_sum   'Zr12 H136 C184 O48'
_cell_volume   11890.69033457
_cell_formula_units_Z   4
loop_
 _symmetry_equiv_pos_site_id
 _symmetry_equiv_pos_as_xyz
  1  'x, y, z'
loop_
 _atom_site_type_symbol
 _atom_site_label
 _atom_site_symmetry_multiplicity
 _atom_site_fract_x
 _atom_site_fract_y
 _atom_site_fract_z
 _atom_site_occupancy
  Zr  Zr0  1  0.37726000  0.54694000  0.50000000  1
  Zr  Zr1  1  0.62274000  0.45306000  0.50000000  1
  Zr  Zr2  1  0.45306000  0.37726000  0.50000000  1
  Zr  Zr3  1  0.54694000  0.62274000  0.50000000  1
  Zr  Zr4  1  0.12274000  0.04694000  0.00000000  1
  Zr  Zr5  1  0.87726000  0.95306000  0.00000000  1
  Zr  Zr6  1  0.04694000  0.87726000  0.00000000  1
  Zr  Zr7  1  0.95306000  0.12274000  0.00000000  1
  Zr  Zr8  1  0.50000000  0.50000000  0.57466000  1
  Zr  Zr9  1  0.00000000  0.00000000  0.92534000  1
  Zr  Zr10  1  0.50000000  0.50000000  0.42534000  1
  Zr  Zr11  1  0.00000000  0.00000000  0.07466000  1
  H  H12  1  0.52630000  0.64690000  0.67610000  1
  H  H13  1  0.53950000  0.73210000  0.72650000  1
  H  H14  1  0.47230000  0.94330000  0.66890000  1
  H  H15  1  0.42000000  0.93030000  0.70630000  1
  H  H16  1  0.45570000  0.86490000  0.68380000  1
  H  H17  1  0.60320000  0.78150000  0.59390000  1
  H  H18  1  0.61340000  0.86870000  0.64390000  1
  H  H19  1  0.66666667  0.76630000  0.74410000  1
  H  H20  1  0.71070000  0.81040000  0.77680000  1
  H  H21  1  0.72320000  0.82290000  0.72920000  1
  H  H22  1  0.47370000  0.35310000  0.67610000  1
  H  H23  1  0.46050000  0.26790000  0.72650000  1
  H  H24  1  0.52770000  0.05670000  0.66890000  1
  H  H25  1  0.58000000  0.06970000  0.70630000  1
  H  H26  1  0.54430000  0.13510000  0.68380000  1
  H  H27  1  0.39680000  0.21850000  0.59390000  1
  H  H28  1  0.38660000  0.13130000  0.64390000  1
  H  H29  1  0.33340000  0.23370000  0.74410000  1
  H  H30  1  0.28930000  0.18960000  0.77680000  1
  H  H31  1  0.27680000  0.17710000  0.72920000  1
  H  H32  1  0.35310000  0.52630000  0.67610000  1
  H  H33  1  0.26790000  0.53950000  0.72650000  1
  H  H34  1  0.05670000  0.47230000  0.66890000  1
  H  H35  1  0.06970000  0.42000000  0.70630000  1
  H  H36  1  0.13510000  0.45570000  0.68380000  1
  H  H37  1  0.21850000  0.60320000  0.59390000  1
  H  H38  1  0.13130000  0.61340000  0.64390000  1
  H  H39  1  0.23370000  0.66666667  0.74410000  1
  H  H40  1  0.18960000  0.71070000  0.77680000  1
  H  H41  1  0.17710000  0.72320000  0.72920000  1
  H  H42  1  0.64690000  0.47370000  0.67610000  1
  H  H43  1  0.73210000  0.46050000  0.72650000  1
  H  H44  1  0.94330000  0.52770000  0.66890000  1
  H  H45  1  0.93030000  0.58000000  0.70630000  1
  H  H46  1  0.86490000  0.54430000  0.68380000  1
  H  H47  1  0.78150000  0.39680000  0.59390000  1
  H  H48  1  0.86870000  0.38660000  0.64390000  1
  H  H49  1  0.76630000  0.33340000  0.74410000  1
  H  H50  1  0.81040000  0.28930000  0.77680000  1
  H  H51  1  0.82290000  0.27680000  0.72920000  1
  H  H52  1  0.97370000  0.14690000  0.82390000  1
  H  H53  1  0.96050000  0.23210000  0.77350000  1
  H  H54  1  0.02770000  0.44330000  0.83110000  1
  H  H55  1  0.08000000  0.43030000  0.79370000  1
  H  H56  1  0.04430000  0.36490000  0.81620000  1
  H  H57  1  0.89680000  0.28150000  0.90610000  1
  H  H58  1  0.88660000  0.36870000  0.85610000  1
  H  H59  1  0.02630000  0.85310000  0.82390000  1
  H  H60  1  0.03950000  0.76790000  0.77350000  1
  H  H61  1  0.97230000  0.55670000  0.83110000  1
  H  H62  1  0.92000000  0.56970000  0.79370000  1
  H  H63  1  0.95570000  0.63510000  0.81620000  1
  H  H64  1  0.10320000  0.71850000  0.90610000  1
  H  H65  1  0.11340000  0.63130000  0.85610000  1
  H  H66  1  0.14690000  0.02630000  0.82390000  1
  H  H67  1  0.23210000  0.03950000  0.77350000  1
  H  H68  1  0.44330000  0.97230000  0.83110000  1
  H  H69  1  0.43030000  0.92000000  0.79370000  1
  H  H70  1  0.36490000  0.95570000  0.81620000  1
  H  H71  1  0.28150000  0.10320000  0.90610000  1
  H  H72  1  0.36870000  0.11340000  0.85610000  1
  H  H73  1  0.85310000  0.97370000  0.82390000  1
  H  H74  1  0.76790000  0.96050000  0.77350000  1
  H  H75  1  0.55670000  0.02770000  0.83110000  1
  H  H76  1  0.56970000  0.08000000  0.79370000  1
  H  H77  1  0.63510000  0.04430000  0.81620000  1
  H  H78  1  0.71850000  0.89680000  0.90610000  1
  H  H79  1  0.63130000  0.88660000  0.85610000  1
  H  H80  1  0.47370000  0.35310000  0.32390000  1
  H  H81  1  0.46050000  0.26790000  0.27350000  1
  H  H82  1  0.52770000  0.05670000  0.33110000  1
  H  H83  1  0.58000000  0.06970000  0.29370000  1
  H  H84  1  0.54430000  0.13510000  0.31620000  1
  H  H85  1  0.39680000  0.21850000  0.40610000  1
  H  H86  1  0.38660000  0.13130000  0.35610000  1
  H  H87  1  0.33340000  0.23370000  0.25590000  1
  H  H88  1  0.28930000  0.18960000  0.22320000  1
  H  H89  1  0.27680000  0.17710000  0.27080000  1
  H  H90  1  0.52630000  0.64690000  0.32390000  1
  H  H91  1  0.53950000  0.73210000  0.27350000  1
  H  H92  1  0.47230000  0.94330000  0.33110000  1
  H  H93  1  0.42000000  0.93030000  0.29370000  1
  H  H94  1  0.45570000  0.86490000  0.31620000  1
  H  H95  1  0.60320000  0.78150000  0.40610000  1
  H  H96  1  0.61340000  0.86870000  0.35610000  1
  H  H97  1  0.66666667  0.76630000  0.25590000  1
  H  H98  1  0.71070000  0.81040000  0.22320000  1
  H  H99  1  0.72320000  0.82290000  0.27080000  1
  H  H100  1  0.64690000  0.47370000  0.32390000  1
  H  H101  1  0.73210000  0.46050000  0.27350000  1
  H  H102  1  0.94330000  0.52770000  0.33110000  1
  H  H103  1  0.93030000  0.58000000  0.29370000  1
  H  H104  1  0.86490000  0.54430000  0.31620000  1
  H  H105  1  0.78150000  0.39680000  0.40610000  1
  H  H106  1  0.86870000  0.38660000  0.35610000  1
  H  H107  1  0.35310000  0.52630000  0.32390000  1
  H  H108  1  0.26790000  0.53950000  0.27350000  1
  H  H109  1  0.05670000  0.47230000  0.33110000  1
  H  H110  1  0.06970000  0.42000000  0.29370000  1
  H  H111  1  0.13510000  0.45570000  0.31620000  1
  H  H112  1  0.21850000  0.60320000  0.40610000  1
  H  H113  1  0.13130000  0.61340000  0.35610000  1
  H  H114  1  0.02630000  0.85310000  0.17610000  1
  H  H115  1  0.03950000  0.76790000  0.22650000  1
  H  H116  1  0.97230000  0.55670000  0.16890000  1
  H  H117  1  0.92000000  0.56970000  0.20630000  1
  H  H118  1  0.95570000  0.63510000  0.18380000  1
  H  H119  1  0.10320000  0.71850000  0.09390000  1
  H  H120  1  0.11340000  0.63130000  0.14390000  1
  H  H121  1  0.16660000  0.73370000  0.24410000  1
  H  H122  1  0.21070000  0.68960000  0.27680000  1
  H  H123  1  0.22320000  0.67710000  0.22920000  1
  H  H124  1  0.97370000  0.14690000  0.17610000  1
  H  H125  1  0.96050000  0.23210000  0.22650000  1
  H  H126  1  0.02770000  0.44330000  0.16890000  1
  H  H127  1  0.08000000  0.43030000  0.20630000  1
  H  H128  1  0.04430000  0.36490000  0.18380000  1
  H  H129  1  0.89680000  0.28150000  0.09390000  1
  H  H130  1  0.88660000  0.36870000  0.14390000  1
  H  H131  1  0.83340000  0.26630000  0.24410000  1
  H  H132  1  0.78930000  0.31040000  0.27680000  1
  H  H133  1  0.77680000  0.32290000  0.22920000  1
  H  H134  1  0.85310000  0.97370000  0.17610000  1
  H  H135  1  0.76790000  0.96050000  0.22650000  1
  H  H136  1  0.55670000  0.02770000  0.16890000  1
  H  H137  1  0.56970000  0.08000000  0.20630000  1
  H  H138  1  0.63510000  0.04430000  0.18380000  1
  H  H139  1  0.71850000  0.89680000  0.09390000  1
  H  H140  1  0.63130000  0.88660000  0.14390000  1
  H  H141  1  0.14690000  0.02630000  0.17610000  1
  H  H142  1  0.23210000  0.03950000  0.22650000  1
  H  H143  1  0.44330000  0.97230000  0.16890000  1
  H  H144  1  0.43030000  0.92000000  0.20630000  1
  H  H145  1  0.36490000  0.95570000  0.18380000  1
  H  H146  1  0.28150000  0.10320000  0.09390000  1
  H  H147  1  0.36870000  0.11340000  0.14390000  1
  C  C148  1  0.52440000  0.91720000  0.72201000  1
  C  C149  1  0.54400000  0.69210000  0.66932000  1
  C  C150  1  0.55260000  0.65390000  0.59750000  1
  C  C151  1  0.55130000  0.74330000  0.69922000  1
  C  C152  1  0.57740000  0.86610000  0.72184000  1
  C  C153  1  0.46260000  0.91360000  0.69266000  1
  C  C154  1  0.56240000  0.70720000  0.62999000  1
  C  C155  1  0.57500000  0.80980000  0.69018000  1
  C  C156  1  0.58880000  0.77160000  0.62095000  1
  C  C157  1  0.59520000  0.82380000  0.65079000  1
  C  C158  1  0.47560000  0.08280000  0.72201000  1
  C  C159  1  0.45600000  0.30790000  0.66932000  1
  C  C160  1  0.44740000  0.34610000  0.59750000  1
  C  C161  1  0.44870000  0.25670000  0.69922000  1
  C  C162  1  0.42260000  0.13390000  0.72184000  1
  C  C163  1  0.53740000  0.08640000  0.69266000  1
  C  C164  1  0.43760000  0.29280000  0.62999000  1
  C  C165  1  0.42500000  0.19020000  0.69018000  1
  C  C166  1  0.41120000  0.22840000  0.62095000  1
  C  C167  1  0.40480000  0.17620000  0.65079000  1
  C  C168  1  0.08280000  0.52440000  0.72201000  1
  C  C169  1  0.30790000  0.54400000  0.66932000  1
  C  C170  1  0.34610000  0.55260000  0.59750000  1
  C  C171  1  0.25670000  0.55130000  0.69922000  1
  C  C172  1  0.13390000  0.57740000  0.72184000  1
  C  C173  1  0.08640000  0.46260000  0.69266000  1
  C  C174  1  0.29280000  0.56240000  0.62999000  1
  C  C175  1  0.19020000  0.57500000  0.69018000  1
  C  C176  1  0.22840000  0.58880000  0.62095000  1
  C  C177  1  0.17620000  0.59520000  0.65079000  1
  C  C178  1  0.91720000  0.47560000  0.72201000  1
  C  C179  1  0.69210000  0.45600000  0.66932000  1
  C  C180  1  0.65390000  0.44740000  0.59750000  1
  C  C181  1  0.74330000  0.44870000  0.69922000  1
  C  C182  1  0.86610000  0.42260000  0.72184000  1
  C  C183  1  0.91360000  0.53740000  0.69266000  1
  C  C184  1  0.70720000  0.43760000  0.62999000  1
  C  C185  1  0.80980000  0.42500000  0.69018000  1
  C  C186  1  0.77160000  0.41120000  0.62095000  1
  C  C187  1  0.82380000  0.40480000  0.65079000  1
  C  C188  1  0.97560000  0.41720000  0.77799000  1
  C  C189  1  0.95600000  0.19210000  0.83068000  1
  C  C190  1  0.94740000  0.15390000  0.90250000  1
  C  C191  1  0.94870000  0.24330000  0.80078000  1
  C  C192  1  0.92260000  0.36610000  0.77816000  1
  C  C193  1  0.03740000  0.41360000  0.80734000  1
  C  C194  1  0.93760000  0.20720000  0.87001000  1
  C  C195  1  0.92500000  0.30980000  0.80982000  1
  C  C196  1  0.91120000  0.27160000  0.87905000  1
  C  C197  1  0.90480000  0.32380000  0.84921000  1
  C  C198  1  0.02440000  0.58280000  0.77799000  1
  C  C199  1  0.04400000  0.80790000  0.83068000  1
  C  C200  1  0.05260000  0.84610000  0.90250000  1
  C  C201  1  0.05130000  0.75670000  0.80078000  1
  C  C202  1  0.07740000  0.63390000  0.77816000  1
  C  C203  1  0.96260000  0.58640000  0.80734000  1
  C  C204  1  0.06240000  0.79280000  0.87001000  1
  C  C205  1  0.07500000  0.69020000  0.80982000  1
  C  C206  1  0.08880000  0.72840000  0.87905000  1
  C  C207  1  0.09520000  0.67620000  0.84921000  1
  C  C208  1  0.41720000  0.02440000  0.77799000  1
  C  C209  1  0.19210000  0.04400000  0.83068000  1
  C  C210  1  0.15390000  0.05260000  0.90250000  1
  C  C211  1  0.24330000  0.05130000  0.80078000  1
  C  C212  1  0.36610000  0.07740000  0.77816000  1
  C  C213  1  0.41360000  0.96260000  0.80734000  1
  C  C214  1  0.20720000  0.06240000  0.87001000  1
  C  C215  1  0.30980000  0.07500000  0.80982000  1
  C  C216  1  0.27160000  0.08880000  0.87905000  1
  C  C217  1  0.32380000  0.09520000  0.84921000  1
  C  C218  1  0.58280000  0.97560000  0.77799000  1
  C  C219  1  0.80790000  0.95600000  0.83068000  1
  C  C220  1  0.84610000  0.94740000  0.90250000  1
  C  C221  1  0.75670000  0.94870000  0.80078000  1
  C  C222  1  0.63390000  0.92260000  0.77816000  1
  C  C223  1  0.58640000  0.03740000  0.80734000  1
  C  C224  1  0.79280000  0.93760000  0.87001000  1
  C  C225  1  0.69020000  0.92500000  0.80982000  1
  C  C226  1  0.72840000  0.91120000  0.87905000  1
  C  C227  1  0.67620000  0.90480000  0.84921000  1
  C  C228  1  0.47560000  0.08280000  0.27799000  1
  C  C229  1  0.45600000  0.30790000  0.33068000  1
  C  C230  1  0.44740000  0.34610000  0.40250000  1
  C  C231  1  0.44870000  0.25670000  0.30078000  1
  C  C232  1  0.42260000  0.13390000  0.27816000  1
  C  C233  1  0.53740000  0.08640000  0.30734000  1
  C  C234  1  0.43760000  0.29280000  0.37001000  1
  C  C235  1  0.42500000  0.19020000  0.30982000  1
  C  C236  1  0.41120000  0.22840000  0.37905000  1
  C  C237  1  0.40480000  0.17620000  0.34921000  1
  C  C238  1  0.52440000  0.91720000  0.27799000  1
  C  C239  1  0.54400000  0.69210000  0.33068000  1
  C  C240  1  0.55260000  0.65390000  0.40250000  1
  C  C241  1  0.55130000  0.74330000  0.30078000  1
  C  C242  1  0.57740000  0.86610000  0.27816000  1
  C  C243  1  0.46260000  0.91360000  0.30734000  1
  C  C244  1  0.56240000  0.70720000  0.37001000  1
  C  C245  1  0.57500000  0.80980000  0.30982000  1
  C  C246  1  0.58880000  0.77160000  0.37905000  1
  C  C247  1  0.59520000  0.82380000  0.34921000  1
  C  C248  1  0.91720000  0.47560000  0.27799000  1
  C  C249  1  0.69210000  0.45600000  0.33068000  1
  C  C250  1  0.65390000  0.44740000  0.40250000  1
  C  C251  1  0.74330000  0.44870000  0.30078000  1
  C  C252  1  0.86610000  0.42260000  0.27816000  1
  C  C253  1  0.91360000  0.53740000  0.30734000  1
  C  C254  1  0.70720000  0.43760000  0.37001000  1
  C  C255  1  0.80980000  0.42500000  0.30982000  1
  C  C256  1  0.77160000  0.41120000  0.37905000  1
  C  C257  1  0.82380000  0.40480000  0.34921000  1
  C  C258  1  0.08280000  0.52440000  0.27799000  1
  C  C259  1  0.30790000  0.54400000  0.33068000  1
  C  C260  1  0.34610000  0.55260000  0.40250000  1
  C  C261  1  0.25670000  0.55130000  0.30078000  1
  C  C262  1  0.13390000  0.57740000  0.27816000  1
  C  C263  1  0.08640000  0.46260000  0.30734000  1
  C  C264  1  0.29280000  0.56240000  0.37001000  1
  C  C265  1  0.19020000  0.57500000  0.30982000  1
  C  C266  1  0.22840000  0.58880000  0.37905000  1
  C  C267  1  0.17620000  0.59520000  0.34921000  1
  C  C268  1  0.02440000  0.58280000  0.22201000  1
  C  C269  1  0.04400000  0.80790000  0.16932000  1
  C  C270  1  0.05260000  0.84610000  0.09750000  1
  C  C271  1  0.05130000  0.75670000  0.19922000  1
  C  C272  1  0.07740000  0.63390000  0.22184000  1
  C  C273  1  0.96260000  0.58640000  0.19266000  1
  C  C274  1  0.06240000  0.79280000  0.12999000  1
  C  C275  1  0.07500000  0.69020000  0.19018000  1
  C  C276  1  0.08880000  0.72840000  0.12095000  1
  C  C277  1  0.09520000  0.67620000  0.15079000  1
  C  C278  1  0.97560000  0.41720000  0.22201000  1
  C  C279  1  0.95600000  0.19210000  0.16932000  1
  C  C280  1  0.94740000  0.15390000  0.09750000  1
  C  C281  1  0.94870000  0.24330000  0.19922000  1
  C  C282  1  0.92260000  0.36610000  0.22184000  1
  C  C283  1  0.03740000  0.41360000  0.19266000  1
  C  C284  1  0.93760000  0.20720000  0.12999000  1
  C  C285  1  0.92500000  0.30980000  0.19018000  1
  C  C286  1  0.91120000  0.27160000  0.12095000  1
  C  C287  1  0.90480000  0.32380000  0.15079000  1
  C  C288  1  0.58280000  0.97560000  0.22201000  1
  C  C289  1  0.80790000  0.95600000  0.16932000  1
  C  C290  1  0.84610000  0.94740000  0.09750000  1
  C  C291  1  0.75670000  0.94870000  0.19922000  1
  C  C292  1  0.63390000  0.92260000  0.22184000  1
  C  C293  1  0.58640000  0.03740000  0.19266000  1
  C  C294  1  0.79280000  0.93760000  0.12999000  1
  C  C295  1  0.69020000  0.92500000  0.19018000  1
  C  C296  1  0.72840000  0.91120000  0.12095000  1
  C  C297  1  0.67620000  0.90480000  0.15079000  1
  C  C298  1  0.41720000  0.02440000  0.22201000  1
  C  C299  1  0.19210000  0.04400000  0.16932000  1
  C  C300  1  0.15390000  0.05260000  0.09750000  1
  C  C301  1  0.24330000  0.05130000  0.19922000  1
  C  C302  1  0.36610000  0.07740000  0.22184000  1
  C  C303  1  0.41360000  0.96260000  0.19266000  1
  C  C304  1  0.20720000  0.06240000  0.12999000  1
  C  C305  1  0.30980000  0.07500000  0.19018000  1
  C  C306  1  0.27160000  0.08880000  0.12095000  1
  C  C307  1  0.32380000  0.09520000  0.15079000  1
  C  C308  1  0.52800000  0.97200000  0.75000000  1
  C  C309  1  0.63170000  0.86830000  0.75000000  1
  C  C310  1  0.68800000  0.81200000  0.75000000  1
  C  C311  1  0.47200000  0.02800000  0.75000000  1
  C  C312  1  0.36830000  0.13170000  0.75000000  1
  C  C313  1  0.31200000  0.18800000  0.75000000  1
  C  C314  1  0.02800000  0.52800000  0.75000000  1
  C  C315  1  0.13170000  0.63170000  0.75000000  1
  C  C316  1  0.18800000  0.68800000  0.75000000  1
  C  C317  1  0.97200000  0.47200000  0.75000000  1
  C  C318  1  0.86830000  0.36830000  0.75000000  1
  C  C319  1  0.81200000  0.31200000  0.75000000  1
  C  C320  1  0.47200000  0.02800000  0.25000000  1
  C  C321  1  0.36830000  0.13170000  0.25000000  1
  C  C322  1  0.31200000  0.18800000  0.25000000  1
  C  C323  1  0.52800000  0.97200000  0.25000000  1
  C  C324  1  0.63170000  0.86830000  0.25000000  1
  C  C325  1  0.68800000  0.81200000  0.25000000  1
  C  C326  1  0.97200000  0.47200000  0.25000000  1
  C  C327  1  0.86830000  0.36830000  0.25000000  1
  C  C328  1  0.81200000  0.31200000  0.25000000  1
  C  C329  1  0.02800000  0.52800000  0.25000000  1
  C  C330  1  0.13170000  0.63170000  0.25000000  1
  C  C331  1  0.18800000  0.68800000  0.25000000  1
  O  O332  1  0.53300000  0.59338000  0.60900000  1
  O  O333  1  0.56483000  0.67238000  0.56152000  1
  O  O334  1  0.46209000  0.58591000  0.53663000  1
  O  O335  1  0.46700000  0.40662000  0.60900000  1
  O  O336  1  0.43517000  0.32762000  0.56152000  1
  O  O337  1  0.53791000  0.41409000  0.53663000  1
  O  O338  1  0.40662000  0.53300000  0.60900000  1
  O  O339  1  0.32762000  0.56483000  0.56152000  1
  O  O340  1  0.41409000  0.46209000  0.53663000  1
  O  O341  1  0.59338000  0.46700000  0.60900000  1
  O  O342  1  0.67238000  0.43517000  0.56152000  1
  O  O343  1  0.58591000  0.53791000  0.53663000  1
  O  O344  1  0.96700000  0.09338000  0.89100000  1
  O  O345  1  0.93517000  0.17238000  0.93848000  1
  O  O346  1  0.03791000  0.08591000  0.96337000  1
  O  O347  1  0.03300000  0.90662000  0.89100000  1
  O  O348  1  0.06483000  0.82762000  0.93848000  1
  O  O349  1  0.96209000  0.91409000  0.96337000  1
  O  O350  1  0.09338000  0.03300000  0.89100000  1
  O  O351  1  0.17238000  0.06483000  0.93848000  1
  O  O352  1  0.08591000  0.96209000  0.96337000  1
  O  O353  1  0.90662000  0.96700000  0.89100000  1
  O  O354  1  0.82762000  0.93517000  0.93848000  1
  O  O355  1  0.91409000  0.03791000  0.96337000  1
  O  O356  1  0.46700000  0.40662000  0.39100000  1
  O  O357  1  0.43517000  0.32762000  0.43848000  1
  O  O358  1  0.53791000  0.41409000  0.46337000  1
  O  O359  1  0.53300000  0.59338000  0.39100000  1
  O  O360  1  0.56483000  0.67238000  0.43848000  1
  O  O361  1  0.46209000  0.58591000  0.46337000  1
  O  O362  1  0.59338000  0.46700000  0.39100000  1
  O  O363  1  0.67238000  0.43517000  0.43848000  1
  O  O364  1  0.58591000  0.53791000  0.46337000  1
  O  O365  1  0.40662000  0.53300000  0.39100000  1
  O  O366  1  0.32762000  0.56483000  0.43848000  1
  O  O367  1  0.41409000  0.46209000  0.46337000  1
  O  O368  1  0.03300000  0.90662000  0.10900000  1
  O  O369  1  0.06483000  0.82762000  0.06152000  1
  O  O370  1  0.96209000  0.91409000  0.03663000  1
  O  O371  1  0.96700000  0.09338000  0.10900000  1
  O  O372  1  0.93517000  0.17238000  0.06152000  1
  O  O373  1  0.03791000  0.08591000  0.03663000  1
  O  O374  1  0.90662000  0.96700000  0.10900000  1
  O  O375  1  0.82762000  0.93517000  0.06152000  1
  O  O376  1  0.91409000  0.03791000  0.03663000  1
  O  O377  1  0.09338000  0.03300000  0.10900000  1
  O  O378  1  0.17238000  0.06483000  0.06152000  1
  O  O379  1  0.08591000  0.96209000  0.03663000  1
