# generated using pymatgen
data_Zr3H34(C23O6)2
_symmetry_space_group_name_H-M   'P 1'
_cell_length_a   18.91110000
_cell_length_b   18.91110000
_cell_length_c   33.19660000
_cell_angle_alpha   90.00000000
_cell_angle_beta   90.00000000
_cell_angle_gamma   90.00000000
_symmetry_Int_Tables_number   1
_chemical_formula_structural   Zr3H34(C23O6)2
_chemical_formula_sum   'Zr12 H136 C184 O48'
_cell_volume   11872.09020558
_cell_formula_units_Z   4
loop_
 _symmetry_equiv_pos_site_id
 _symmetry_equiv_pos_as_xyz
  1  'x, y, z'
loop_
 _atom_site_type_symbol
 _atom_site_label
 _atom_site_symmetry_multiplicity
 _atom_site_fract_x
 _atom_site_fract_y
 _atom_site_fract_z
 _atom_site_occupancy
  Zr  Zr0  1  0.50000000  0.50000000  0.42647000  1
  Zr  Zr1  1  0.00000000  0.00000000  0.07353000  1
  Zr  Zr2  1  0.50000000  0.50000000  0.57353000  1
  Zr  Zr3  1  0.00000000  0.00000000  0.92647000  1
  Zr  Zr4  1  0.54708000  0.62296000  0.50000000  1
  Zr  Zr5  1  0.45292000  0.37704000  0.50000000  1
  Zr  Zr6  1  0.37704000  0.54708000  0.50000000  1
  Zr  Zr7  1  0.62296000  0.45292000  0.50000000  1
  Zr  Zr8  1  0.95292000  0.12296000  0.00000000  1
  Zr  Zr9  1  0.04708000  0.87704000  0.00000000  1
  Zr  Zr10  1  0.12296000  0.04708000  0.00000000  1
  Zr  Zr11  1  0.87704000  0.95292000  0.00000000  1
  H  H12  1  0.52030000  0.06040000  0.33320000  1
  H  H13  1  0.53850000  0.13600000  0.31670000  1
  H  H14  1  0.57520000  0.06910000  0.29810000  1
  H  H15  1  0.46060000  0.35240000  0.32390000  1
  H  H16  1  0.40930000  0.21080000  0.40880000  1
  H  H17  1  0.45590000  0.26750000  0.27590000  1
  H  H18  1  0.39580000  0.12420000  0.35780000  1
  H  H19  1  0.47970000  0.93960000  0.33320000  1
  H  H20  1  0.46150000  0.86400000  0.31670000  1
  H  H21  1  0.42480000  0.93090000  0.29810000  1
  H  H22  1  0.53940000  0.64760000  0.32390000  1
  H  H23  1  0.59070000  0.78920000  0.40880000  1
  H  H24  1  0.54410000  0.73250000  0.27590000  1
  H  H25  1  0.60420000  0.87580000  0.35780000  1
  H  H26  1  0.93960000  0.52030000  0.33320000  1
  H  H27  1  0.86400000  0.53850000  0.31670000  1
  H  H28  1  0.93090000  0.57520000  0.29810000  1
  H  H29  1  0.64760000  0.46060000  0.32390000  1
  H  H30  1  0.78920000  0.40930000  0.40880000  1
  H  H31  1  0.73250000  0.45590000  0.27590000  1
  H  H32  1  0.87580000  0.39580000  0.35780000  1
  H  H33  1  0.06040000  0.47970000  0.33320000  1
  H  H34  1  0.13600000  0.46150000  0.31670000  1
  H  H35  1  0.06910000  0.42480000  0.29810000  1
  H  H36  1  0.35240000  0.53940000  0.32390000  1
  H  H37  1  0.21080000  0.59070000  0.40880000  1
  H  H38  1  0.26750000  0.54410000  0.27590000  1
  H  H39  1  0.12420000  0.60420000  0.35780000  1
  H  H40  1  0.22190000  0.68090000  0.27170000  1
  H  H41  1  0.21450000  0.68830000  0.22490000  1
  H  H42  1  0.16780000  0.73500000  0.25340000  1
  H  H43  1  0.97970000  0.56040000  0.16680000  1
  H  H44  1  0.96150000  0.63600000  0.18330000  1
  H  H45  1  0.92480000  0.56910000  0.20190000  1
  H  H46  1  0.03940000  0.85240000  0.17610000  1
  H  H47  1  0.09070000  0.71080000  0.09120000  1
  H  H48  1  0.04410000  0.76750000  0.22410000  1
  H  H49  1  0.10420000  0.62420000  0.14220000  1
  H  H50  1  0.02030000  0.43960000  0.16680000  1
  H  H51  1  0.03850000  0.36400000  0.18330000  1
  H  H52  1  0.07520000  0.43090000  0.20190000  1
  H  H53  1  0.96060000  0.14760000  0.17610000  1
  H  H54  1  0.90930000  0.28920000  0.09120000  1
  H  H55  1  0.95590000  0.23250000  0.22410000  1
  H  H56  1  0.89580000  0.37580000  0.14220000  1
  H  H57  1  0.81910000  0.27810000  0.22830000  1
  H  H58  1  0.81170000  0.28550000  0.27510000  1
  H  H59  1  0.76500000  0.33220000  0.24660000  1
  H  H60  1  0.56040000  0.02030000  0.16680000  1
  H  H61  1  0.63600000  0.03850000  0.18330000  1
  H  H62  1  0.56910000  0.07520000  0.20190000  1
  H  H63  1  0.85240000  0.96060000  0.17610000  1
  H  H64  1  0.71080000  0.90930000  0.09120000  1
  H  H65  1  0.76750000  0.95590000  0.22410000  1
  H  H66  1  0.62420000  0.89580000  0.14220000  1
  H  H67  1  0.72190000  0.81910000  0.22830000  1
  H  H68  1  0.71450000  0.81170000  0.27510000  1
  H  H69  1  0.66780000  0.76500000  0.24660000  1
  H  H70  1  0.43960000  0.97970000  0.16680000  1
  H  H71  1  0.36400000  0.96150000  0.18330000  1
  H  H72  1  0.43090000  0.92480000  0.20190000  1
  H  H73  1  0.14760000  0.03940000  0.17610000  1
  H  H74  1  0.28920000  0.09070000  0.09120000  1
  H  H75  1  0.23250000  0.04410000  0.22410000  1
  H  H76  1  0.37580000  0.10420000  0.14220000  1
  H  H77  1  0.27810000  0.18090000  0.22830000  1
  H  H78  1  0.28550000  0.18830000  0.27510000  1
  H  H79  1  0.33220000  0.23500000  0.24660000  1
  H  H80  1  0.47970000  0.93960000  0.66680000  1
  H  H81  1  0.46150000  0.86400000  0.68330000  1
  H  H82  1  0.42480000  0.93090000  0.70190000  1
  H  H83  1  0.53940000  0.64760000  0.67610000  1
  H  H84  1  0.59070000  0.78920000  0.59120000  1
  H  H85  1  0.54410000  0.73250000  0.72410000  1
  H  H86  1  0.60420000  0.87580000  0.64220000  1
  H  H87  1  0.68090000  0.77810000  0.72830000  1
  H  H88  1  0.68830000  0.78550000  0.77510000  1
  H  H89  1  0.73500000  0.83220000  0.74660000  1
  H  H90  1  0.52030000  0.06040000  0.66680000  1
  H  H91  1  0.53850000  0.13600000  0.68330000  1
  H  H92  1  0.57520000  0.06910000  0.70190000  1
  H  H93  1  0.46060000  0.35240000  0.67610000  1
  H  H94  1  0.40930000  0.21080000  0.59120000  1
  H  H95  1  0.45590000  0.26750000  0.72410000  1
  H  H96  1  0.39580000  0.12420000  0.64220000  1
  H  H97  1  0.06040000  0.47970000  0.66680000  1
  H  H98  1  0.13600000  0.46150000  0.68330000  1
  H  H99  1  0.06910000  0.42480000  0.70190000  1
  H  H100  1  0.35240000  0.53940000  0.67610000  1
  H  H101  1  0.21080000  0.59070000  0.59120000  1
  H  H102  1  0.26750000  0.54410000  0.72410000  1
  H  H103  1  0.12420000  0.60420000  0.64220000  1
  H  H104  1  0.93960000  0.52030000  0.66680000  1
  H  H105  1  0.86400000  0.53850000  0.68330000  1
  H  H106  1  0.93090000  0.57520000  0.70190000  1
  H  H107  1  0.64760000  0.46060000  0.67610000  1
  H  H108  1  0.78920000  0.40930000  0.59120000  1
  H  H109  1  0.73250000  0.45590000  0.72410000  1
  H  H110  1  0.87580000  0.39580000  0.64220000  1
  H  H111  1  0.02030000  0.43960000  0.83320000  1
  H  H112  1  0.03850000  0.36400000  0.81670000  1
  H  H113  1  0.07520000  0.43090000  0.79810000  1
  H  H114  1  0.96060000  0.14760000  0.82390000  1
  H  H115  1  0.90930000  0.28920000  0.90880000  1
  H  H116  1  0.95590000  0.23250000  0.77590000  1
  H  H117  1  0.89580000  0.37580000  0.85780000  1
  H  H118  1  0.81910000  0.27810000  0.77170000  1
  H  H119  1  0.81170000  0.28550000  0.72490000  1
  H  H120  1  0.76500000  0.33220000  0.75340000  1
  H  H121  1  0.97970000  0.56040000  0.83320000  1
  H  H122  1  0.96150000  0.63600000  0.81670000  1
  H  H123  1  0.92480000  0.56910000  0.79810000  1
  H  H124  1  0.03940000  0.85240000  0.82390000  1
  H  H125  1  0.09070000  0.71080000  0.90880000  1
  H  H126  1  0.04410000  0.76750000  0.77590000  1
  H  H127  1  0.10420000  0.62420000  0.85780000  1
  H  H128  1  0.18090000  0.72190000  0.77170000  1
  H  H129  1  0.18830000  0.71450000  0.72490000  1
  H  H130  1  0.23500000  0.66780000  0.75340000  1
  H  H131  1  0.43960000  0.97970000  0.83320000  1
  H  H132  1  0.36400000  0.96150000  0.81670000  1
  H  H133  1  0.43090000  0.92480000  0.79810000  1
  H  H134  1  0.14760000  0.03940000  0.82390000  1
  H  H135  1  0.28920000  0.09070000  0.90880000  1
  H  H136  1  0.23250000  0.04410000  0.77590000  1
  H  H137  1  0.37580000  0.10420000  0.85780000  1
  H  H138  1  0.27810000  0.18090000  0.77170000  1
  H  H139  1  0.28550000  0.18830000  0.72490000  1
  H  H140  1  0.33220000  0.23500000  0.75340000  1
  H  H141  1  0.56040000  0.02030000  0.83320000  1
  H  H142  1  0.63600000  0.03850000  0.81670000  1
  H  H143  1  0.56910000  0.07520000  0.79810000  1
  H  H144  1  0.85240000  0.96060000  0.82390000  1
  H  H145  1  0.71080000  0.90930000  0.90880000  1
  H  H146  1  0.76750000  0.95590000  0.77590000  1
  H  H147  1  0.62420000  0.89580000  0.85780000  1
  C  C148  1  0.43660000  0.29350000  0.36960000  1
  C  C149  1  0.44050000  0.34820000  0.40230000  1
  C  C150  1  0.47370000  0.08100000  0.27930000  1
  C  C151  1  0.42090000  0.13230000  0.27820000  1
  C  C152  1  0.53220000  0.08720000  0.30950000  1
  C  C153  1  0.42490000  0.18700000  0.31090000  1
  C  C154  1  0.44880000  0.30660000  0.33150000  1
  C  C155  1  0.41700000  0.22200000  0.38180000  1
  C  C156  1  0.44480000  0.25560000  0.30240000  1
  C  C157  1  0.41010000  0.16970000  0.35110000  1
  C  C158  1  0.56340000  0.70650000  0.36960000  1
  C  C159  1  0.55950000  0.65180000  0.40230000  1
  C  C160  1  0.52630000  0.91900000  0.27930000  1
  C  C161  1  0.57910000  0.86770000  0.27820000  1
  C  C162  1  0.46780000  0.91280000  0.30950000  1
  C  C163  1  0.57510000  0.81300000  0.31090000  1
  C  C164  1  0.55120000  0.69340000  0.33150000  1
  C  C165  1  0.58300000  0.77800000  0.38180000  1
  C  C166  1  0.55520000  0.74440000  0.30240000  1
  C  C167  1  0.58990000  0.83030000  0.35110000  1
  C  C168  1  0.70650000  0.43660000  0.36960000  1
  C  C169  1  0.65180000  0.44050000  0.40230000  1
  C  C170  1  0.91900000  0.47370000  0.27930000  1
  C  C171  1  0.86770000  0.42090000  0.27820000  1
  C  C172  1  0.91280000  0.53220000  0.30950000  1
  C  C173  1  0.81300000  0.42490000  0.31090000  1
  C  C174  1  0.69340000  0.44880000  0.33150000  1
  C  C175  1  0.77800000  0.41700000  0.38180000  1
  C  C176  1  0.74440000  0.44480000  0.30240000  1
  C  C177  1  0.83030000  0.41010000  0.35110000  1
  C  C178  1  0.29350000  0.56340000  0.36960000  1
  C  C179  1  0.34820000  0.55950000  0.40230000  1
  C  C180  1  0.08100000  0.52630000  0.27930000  1
  C  C181  1  0.13230000  0.57910000  0.27820000  1
  C  C182  1  0.08720000  0.46780000  0.30950000  1
  C  C183  1  0.18700000  0.57510000  0.31090000  1
  C  C184  1  0.30660000  0.55120000  0.33150000  1
  C  C185  1  0.22200000  0.58300000  0.38180000  1
  C  C186  1  0.25560000  0.55520000  0.30240000  1
  C  C187  1  0.16970000  0.58990000  0.35110000  1
  C  C188  1  0.06340000  0.79350000  0.13040000  1
  C  C189  1  0.05950000  0.84820000  0.09770000  1
  C  C190  1  0.02630000  0.58100000  0.22070000  1
  C  C191  1  0.07910000  0.63230000  0.22180000  1
  C  C192  1  0.96780000  0.58720000  0.19050000  1
  C  C193  1  0.07510000  0.68700000  0.18910000  1
  C  C194  1  0.05120000  0.80660000  0.16850000  1
  C  C195  1  0.08300000  0.72200000  0.11820000  1
  C  C196  1  0.05520000  0.75560000  0.19760000  1
  C  C197  1  0.08990000  0.66970000  0.14890000  1
  C  C198  1  0.93660000  0.20650000  0.13040000  1
  C  C199  1  0.94050000  0.15180000  0.09770000  1
  C  C200  1  0.97370000  0.41900000  0.22070000  1
  C  C201  1  0.92090000  0.36770000  0.22180000  1
  C  C202  1  0.03220000  0.41280000  0.19050000  1
  C  C203  1  0.92490000  0.31300000  0.18910000  1
  C  C204  1  0.94880000  0.19340000  0.16850000  1
  C  C205  1  0.91700000  0.27800000  0.11820000  1
  C  C206  1  0.94480000  0.24440000  0.19760000  1
  C  C207  1  0.91010000  0.33030000  0.14890000  1
  C  C208  1  0.79350000  0.93660000  0.13040000  1
  C  C209  1  0.84820000  0.94050000  0.09770000  1
  C  C210  1  0.58100000  0.97370000  0.22070000  1
  C  C211  1  0.63230000  0.92090000  0.22180000  1
  C  C212  1  0.58720000  0.03220000  0.19050000  1
  C  C213  1  0.68700000  0.92490000  0.18910000  1
  C  C214  1  0.80660000  0.94880000  0.16850000  1
  C  C215  1  0.72200000  0.91700000  0.11820000  1
  C  C216  1  0.75560000  0.94480000  0.19760000  1
  C  C217  1  0.66970000  0.91010000  0.14890000  1
  C  C218  1  0.20650000  0.06340000  0.13040000  1
  C  C219  1  0.15180000  0.05950000  0.09770000  1
  C  C220  1  0.41900000  0.02630000  0.22070000  1
  C  C221  1  0.36770000  0.07910000  0.22180000  1
  C  C222  1  0.41280000  0.96780000  0.19050000  1
  C  C223  1  0.31300000  0.07510000  0.18910000  1
  C  C224  1  0.19340000  0.05120000  0.16850000  1
  C  C225  1  0.27800000  0.08300000  0.11820000  1
  C  C226  1  0.24440000  0.05520000  0.19760000  1
  C  C227  1  0.33030000  0.08990000  0.14890000  1
  C  C228  1  0.56340000  0.70650000  0.63040000  1
  C  C229  1  0.55950000  0.65180000  0.59770000  1
  C  C230  1  0.52630000  0.91900000  0.72070000  1
  C  C231  1  0.57910000  0.86770000  0.72180000  1
  C  C232  1  0.46780000  0.91280000  0.69050000  1
  C  C233  1  0.57510000  0.81300000  0.68910000  1
  C  C234  1  0.55120000  0.69340000  0.66850000  1
  C  C235  1  0.58300000  0.77800000  0.61820000  1
  C  C236  1  0.55520000  0.74440000  0.69760000  1
  C  C237  1  0.58990000  0.83030000  0.64890000  1
  C  C238  1  0.43660000  0.29350000  0.63040000  1
  C  C239  1  0.44050000  0.34820000  0.59770000  1
  C  C240  1  0.47370000  0.08100000  0.72070000  1
  C  C241  1  0.42090000  0.13230000  0.72180000  1
  C  C242  1  0.53220000  0.08720000  0.69050000  1
  C  C243  1  0.42490000  0.18700000  0.68910000  1
  C  C244  1  0.44880000  0.30660000  0.66850000  1
  C  C245  1  0.41700000  0.22200000  0.61820000  1
  C  C246  1  0.44480000  0.25560000  0.69760000  1
  C  C247  1  0.41010000  0.16970000  0.64890000  1
  C  C248  1  0.29350000  0.56340000  0.63040000  1
  C  C249  1  0.34820000  0.55950000  0.59770000  1
  C  C250  1  0.08100000  0.52630000  0.72070000  1
  C  C251  1  0.13230000  0.57910000  0.72180000  1
  C  C252  1  0.08720000  0.46780000  0.69050000  1
  C  C253  1  0.18700000  0.57510000  0.68910000  1
  C  C254  1  0.30660000  0.55120000  0.66850000  1
  C  C255  1  0.22200000  0.58300000  0.61820000  1
  C  C256  1  0.25560000  0.55520000  0.69760000  1
  C  C257  1  0.16970000  0.58990000  0.64890000  1
  C  C258  1  0.70650000  0.43660000  0.63040000  1
  C  C259  1  0.65180000  0.44050000  0.59770000  1
  C  C260  1  0.91900000  0.47370000  0.72070000  1
  C  C261  1  0.86770000  0.42090000  0.72180000  1
  C  C262  1  0.91280000  0.53220000  0.69050000  1
  C  C263  1  0.81300000  0.42490000  0.68910000  1
  C  C264  1  0.69340000  0.44880000  0.66850000  1
  C  C265  1  0.77800000  0.41700000  0.61820000  1
  C  C266  1  0.74440000  0.44480000  0.69760000  1
  C  C267  1  0.83030000  0.41010000  0.64890000  1
  C  C268  1  0.93660000  0.20650000  0.86960000  1
  C  C269  1  0.94050000  0.15180000  0.90230000  1
  C  C270  1  0.97370000  0.41900000  0.77930000  1
  C  C271  1  0.92090000  0.36770000  0.77820000  1
  C  C272  1  0.03220000  0.41280000  0.80950000  1
  C  C273  1  0.92490000  0.31300000  0.81090000  1
  C  C274  1  0.94880000  0.19340000  0.83150000  1
  C  C275  1  0.91700000  0.27800000  0.88180000  1
  C  C276  1  0.94480000  0.24440000  0.80240000  1
  C  C277  1  0.91010000  0.33030000  0.85110000  1
  C  C278  1  0.06340000  0.79350000  0.86960000  1
  C  C279  1  0.05950000  0.84820000  0.90230000  1
  C  C280  1  0.02630000  0.58100000  0.77930000  1
  C  C281  1  0.07910000  0.63230000  0.77820000  1
  C  C282  1  0.96780000  0.58720000  0.80950000  1
  C  C283  1  0.07510000  0.68700000  0.81090000  1
  C  C284  1  0.05120000  0.80660000  0.83150000  1
  C  C285  1  0.08300000  0.72200000  0.88180000  1
  C  C286  1  0.05520000  0.75560000  0.80240000  1
  C  C287  1  0.08990000  0.66970000  0.85110000  1
  C  C288  1  0.20650000  0.06340000  0.86960000  1
  C  C289  1  0.15180000  0.05950000  0.90230000  1
  C  C290  1  0.41900000  0.02630000  0.77930000  1
  C  C291  1  0.36770000  0.07910000  0.77820000  1
  C  C292  1  0.41280000  0.96780000  0.80950000  1
  C  C293  1  0.31300000  0.07510000  0.81090000  1
  C  C294  1  0.19340000  0.05120000  0.83150000  1
  C  C295  1  0.27800000  0.08300000  0.88180000  1
  C  C296  1  0.24440000  0.05520000  0.80240000  1
  C  C297  1  0.33030000  0.08990000  0.85110000  1
  C  C298  1  0.79350000  0.93660000  0.86960000  1
  C  C299  1  0.84820000  0.94050000  0.90230000  1
  C  C300  1  0.58100000  0.97370000  0.77930000  1
  C  C301  1  0.63230000  0.92090000  0.77820000  1
  C  C302  1  0.58720000  0.03220000  0.80950000  1
  C  C303  1  0.68700000  0.92490000  0.81090000  1
  C  C304  1  0.80660000  0.94880000  0.83150000  1
  C  C305  1  0.72200000  0.91700000  0.88180000  1
  C  C306  1  0.75560000  0.94480000  0.80240000  1
  C  C307  1  0.66970000  0.91010000  0.85110000  1
  C  C308  1  0.47186000  0.02814000  0.25000000  1
  C  C309  1  0.36660000  0.13340000  0.25000000  1
  C  C310  1  0.31060000  0.18940000  0.25000000  1
  C  C311  1  0.52814000  0.97186000  0.25000000  1
  C  C312  1  0.63340000  0.86660000  0.25000000  1
  C  C313  1  0.68940000  0.81060000  0.25000000  1
  C  C314  1  0.97186000  0.47186000  0.25000000  1
  C  C315  1  0.86660000  0.36660000  0.25000000  1
  C  C316  1  0.81060000  0.31060000  0.25000000  1
  C  C317  1  0.02814000  0.52814000  0.25000000  1
  C  C318  1  0.13340000  0.63340000  0.25000000  1
  C  C319  1  0.18940000  0.68940000  0.25000000  1
  C  C320  1  0.52814000  0.97186000  0.75000000  1
  C  C321  1  0.63340000  0.86660000  0.75000000  1
  C  C322  1  0.68940000  0.81060000  0.75000000  1
  C  C323  1  0.47186000  0.02814000  0.75000000  1
  C  C324  1  0.36660000  0.13340000  0.75000000  1
  C  C325  1  0.31060000  0.18940000  0.75000000  1
  C  C326  1  0.02814000  0.52814000  0.75000000  1
  C  C327  1  0.13340000  0.63340000  0.75000000  1
  C  C328  1  0.18940000  0.68940000  0.75000000  1
  C  C329  1  0.97186000  0.47186000  0.75000000  1
  C  C330  1  0.86660000  0.36660000  0.75000000  1
  C  C331  1  0.81060000  0.31060000  0.75000000  1
  O  O332  1  0.46620000  0.40800000  0.39230000  1
  O  O333  1  0.43560000  0.32600000  0.44010000  1
  O  O334  1  0.58550000  0.53910000  0.46530000  1
  O  O335  1  0.53380000  0.59200000  0.39230000  1
  O  O336  1  0.56440000  0.67400000  0.44010000  1
  O  O337  1  0.41450000  0.46090000  0.46530000  1
  O  O338  1  0.59200000  0.46620000  0.39230000  1
  O  O339  1  0.67400000  0.43560000  0.44010000  1
  O  O340  1  0.46090000  0.58550000  0.46530000  1
  O  O341  1  0.40800000  0.53380000  0.39230000  1
  O  O342  1  0.32600000  0.56440000  0.44010000  1
  O  O343  1  0.53910000  0.41450000  0.46530000  1
  O  O344  1  0.03380000  0.90800000  0.10770000  1
  O  O345  1  0.06440000  0.82600000  0.05990000  1
  O  O346  1  0.91450000  0.03910000  0.03470000  1
  O  O347  1  0.96620000  0.09200000  0.10770000  1
  O  O348  1  0.93560000  0.17400000  0.05990000  1
  O  O349  1  0.08550000  0.96090000  0.03470000  1
  O  O350  1  0.90800000  0.96620000  0.10770000  1
  O  O351  1  0.82600000  0.93560000  0.05990000  1
  O  O352  1  0.03910000  0.08550000  0.03470000  1
  O  O353  1  0.09200000  0.03380000  0.10770000  1
  O  O354  1  0.17400000  0.06440000  0.05990000  1
  O  O355  1  0.96090000  0.91450000  0.03470000  1
  O  O356  1  0.53380000  0.59200000  0.60770000  1
  O  O357  1  0.56440000  0.67400000  0.55990000  1
  O  O358  1  0.41450000  0.46090000  0.53470000  1
  O  O359  1  0.46620000  0.40800000  0.60770000  1
  O  O360  1  0.43560000  0.32600000  0.55990000  1
  O  O361  1  0.58550000  0.53910000  0.53470000  1
  O  O362  1  0.40800000  0.53380000  0.60770000  1
  O  O363  1  0.32600000  0.56440000  0.55990000  1
  O  O364  1  0.53910000  0.41450000  0.53470000  1
  O  O365  1  0.59200000  0.46620000  0.60770000  1
  O  O366  1  0.67400000  0.43560000  0.55990000  1
  O  O367  1  0.46090000  0.58550000  0.53470000  1
  O  O368  1  0.96620000  0.09200000  0.89230000  1
  O  O369  1  0.93560000  0.17400000  0.94010000  1
  O  O370  1  0.08550000  0.96090000  0.96530000  1
  O  O371  1  0.03380000  0.90800000  0.89230000  1
  O  O372  1  0.06440000  0.82600000  0.94010000  1
  O  O373  1  0.91450000  0.03910000  0.96530000  1
  O  O374  1  0.09200000  0.03380000  0.89230000  1
  O  O375  1  0.17400000  0.06440000  0.94010000  1
  O  O376  1  0.96090000  0.91450000  0.96530000  1
  O  O377  1  0.90800000  0.96620000  0.89230000  1
  O  O378  1  0.82600000  0.93560000  0.94010000  1
  O  O379  1  0.03910000  0.08550000  0.96530000  1
