# generated using pymatgen
data_Zr3H34(C23O6)2
_symmetry_space_group_name_H-M   'P 1'
_cell_length_a   19.17340000
_cell_length_b   19.17340000
_cell_length_c   33.03200000
_cell_angle_alpha   90.00000000
_cell_angle_beta   90.00000000
_cell_angle_gamma   90.00000000
_symmetry_Int_Tables_number   1
_chemical_formula_structural   Zr3H34(C23O6)2
_chemical_formula_sum   'Zr12 H136 C184 O48'
_cell_volume   12143.19964604
_cell_formula_units_Z   4
loop_
 _symmetry_equiv_pos_site_id
 _symmetry_equiv_pos_as_xyz
  1  'x, y, z'
loop_
 _atom_site_type_symbol
 _atom_site_label
 _atom_site_symmetry_multiplicity
 _atom_site_fract_x
 _atom_site_fract_y
 _atom_site_fract_z
 _atom_site_occupancy
  Zr  Zr0  1  0.12316000  0.04336000  0.00000000  1
  Zr  Zr1  1  0.87684000  0.95664000  0.00000000  1
  Zr  Zr2  1  0.95664000  0.12316000  0.00000000  1
  Zr  Zr3  1  0.04336000  0.87684000  0.00000000  1
  Zr  Zr4  1  0.37684000  0.54336000  0.50000000  1
  Zr  Zr5  1  0.62316000  0.45664000  0.50000000  1
  Zr  Zr6  1  0.54336000  0.62316000  0.50000000  1
  Zr  Zr7  1  0.45664000  0.37684000  0.50000000  1
  Zr  Zr8  1  0.00000000  0.00000000  0.07382000  1
  Zr  Zr9  1  0.50000000  0.50000000  0.42618000  1
  Zr  Zr10  1  0.00000000  0.00000000  0.92618000  1
  Zr  Zr11  1  0.50000000  0.50000000  0.57382000  1
  H  H12  1  0.97530000  0.15320000  0.17490000  1
  H  H13  1  0.96940000  0.22640000  0.23190000  1
  H  H14  1  0.06040000  0.45500000  0.19310000  1
  H  H15  1  0.01890000  0.40150000  0.16650000  1
  H  H16  1  0.06720000  0.37480000  0.20150000  1
  H  H17  1  0.89570000  0.28710000  0.08960000  1
  H  H18  1  0.88830000  0.35610000  0.14860000  1
  H  H19  1  0.82230000  0.27870000  0.22920000  1
  H  H20  1  0.81150000  0.28950000  0.27590000  1
  H  H21  1  0.76770000  0.33333333  0.24490000  1
  H  H22  1  0.02470000  0.84680000  0.17490000  1
  H  H23  1  0.03060000  0.77360000  0.23190000  1
  H  H24  1  0.93960000  0.54500000  0.19310000  1
  H  H25  1  0.98110000  0.59850000  0.16650000  1
  H  H26  1  0.93280000  0.62520000  0.20150000  1
  H  H27  1  0.10430000  0.71290000  0.08960000  1
  H  H28  1  0.11170000  0.64390000  0.14860000  1
  H  H29  1  0.17770000  0.72130000  0.22920000  1
  H  H30  1  0.18850000  0.71050000  0.27590000  1
  H  H31  1  0.23230000  0.66666667  0.24490000  1
  H  H32  1  0.84680000  0.97530000  0.17490000  1
  H  H33  1  0.77360000  0.96940000  0.23190000  1
  H  H34  1  0.54500000  0.06040000  0.19310000  1
  H  H35  1  0.59850000  0.01890000  0.16650000  1
  H  H36  1  0.62520000  0.06720000  0.20150000  1
  H  H37  1  0.71290000  0.89570000  0.08960000  1
  H  H38  1  0.64390000  0.88830000  0.14860000  1
  H  H39  1  0.15320000  0.02470000  0.17490000  1
  H  H40  1  0.22640000  0.03060000  0.23190000  1
  H  H41  1  0.45500000  0.93960000  0.19310000  1
  H  H42  1  0.40150000  0.98110000  0.16650000  1
  H  H43  1  0.37480000  0.93280000  0.20150000  1
  H  H44  1  0.28710000  0.10430000  0.08960000  1
  H  H45  1  0.35610000  0.11170000  0.14860000  1
  H  H46  1  0.27870000  0.17770000  0.22920000  1
  H  H47  1  0.28950000  0.18850000  0.27590000  1
  H  H48  1  0.33333333  0.23230000  0.24490000  1
  H  H49  1  0.52470000  0.65320000  0.32510000  1
  H  H50  1  0.53060000  0.72640000  0.26810000  1
  H  H51  1  0.43960000  0.95500000  0.30690000  1
  H  H52  1  0.48110000  0.90150000  0.33350000  1
  H  H53  1  0.43280000  0.87480000  0.29850000  1
  H  H54  1  0.60430000  0.78710000  0.41040000  1
  H  H55  1  0.61170000  0.85610000  0.35140000  1
  H  H56  1  0.67770000  0.77870000  0.27080000  1
  H  H57  1  0.68850000  0.78950000  0.22410000  1
  H  H58  1  0.73230000  0.83330000  0.25510000  1
  H  H59  1  0.47530000  0.34680000  0.32510000  1
  H  H60  1  0.46940000  0.27360000  0.26810000  1
  H  H61  1  0.56040000  0.04500000  0.30690000  1
  H  H62  1  0.51890000  0.09850000  0.33350000  1
  H  H63  1  0.56720000  0.12520000  0.29850000  1
  H  H64  1  0.39570000  0.21290000  0.41040000  1
  H  H65  1  0.38830000  0.14390000  0.35140000  1
  H  H66  1  0.65320000  0.47530000  0.32510000  1
  H  H67  1  0.72640000  0.46940000  0.26810000  1
  H  H68  1  0.95500000  0.56040000  0.30690000  1
  H  H69  1  0.90150000  0.51890000  0.33350000  1
  H  H70  1  0.87480000  0.56720000  0.29850000  1
  H  H71  1  0.78710000  0.39570000  0.41040000  1
  H  H72  1  0.85610000  0.38830000  0.35140000  1
  H  H73  1  0.34680000  0.52470000  0.32510000  1
  H  H74  1  0.27360000  0.53060000  0.26810000  1
  H  H75  1  0.04500000  0.43960000  0.30690000  1
  H  H76  1  0.09850000  0.48110000  0.33350000  1
  H  H77  1  0.12520000  0.43280000  0.29850000  1
  H  H78  1  0.21290000  0.60430000  0.41040000  1
  H  H79  1  0.14390000  0.61170000  0.35140000  1
  H  H80  1  0.02470000  0.84680000  0.82510000  1
  H  H81  1  0.03060000  0.77360000  0.76810000  1
  H  H82  1  0.93960000  0.54500000  0.80690000  1
  H  H83  1  0.98110000  0.59850000  0.83350000  1
  H  H84  1  0.93280000  0.62520000  0.79850000  1
  H  H85  1  0.10430000  0.71290000  0.91040000  1
  H  H86  1  0.11170000  0.64390000  0.85140000  1
  H  H87  1  0.97530000  0.15320000  0.82510000  1
  H  H88  1  0.96940000  0.22640000  0.76810000  1
  H  H89  1  0.06040000  0.45500000  0.80690000  1
  H  H90  1  0.01890000  0.40150000  0.83350000  1
  H  H91  1  0.06720000  0.37480000  0.79850000  1
  H  H92  1  0.89570000  0.28710000  0.91040000  1
  H  H93  1  0.88830000  0.35610000  0.85140000  1
  H  H94  1  0.82230000  0.27870000  0.77080000  1
  H  H95  1  0.81150000  0.28950000  0.72410000  1
  H  H96  1  0.76770000  0.33333333  0.75510000  1
  H  H97  1  0.15320000  0.02470000  0.82510000  1
  H  H98  1  0.22640000  0.03060000  0.76810000  1
  H  H99  1  0.45500000  0.93960000  0.80690000  1
  H  H100  1  0.40150000  0.98110000  0.83350000  1
  H  H101  1  0.37480000  0.93280000  0.79850000  1
  H  H102  1  0.28710000  0.10430000  0.91040000  1
  H  H103  1  0.35610000  0.11170000  0.85140000  1
  H  H104  1  0.27870000  0.17770000  0.77080000  1
  H  H105  1  0.28950000  0.18850000  0.72410000  1
  H  H106  1  0.33333333  0.23230000  0.75510000  1
  H  H107  1  0.84680000  0.97530000  0.82510000  1
  H  H108  1  0.77360000  0.96940000  0.76810000  1
  H  H109  1  0.54500000  0.06040000  0.80690000  1
  H  H110  1  0.59850000  0.01890000  0.83350000  1
  H  H111  1  0.62520000  0.06720000  0.79850000  1
  H  H112  1  0.71290000  0.89570000  0.91040000  1
  H  H113  1  0.64390000  0.88830000  0.85140000  1
  H  H114  1  0.47530000  0.34680000  0.67490000  1
  H  H115  1  0.46940000  0.27360000  0.73190000  1
  H  H116  1  0.56040000  0.04500000  0.69310000  1
  H  H117  1  0.51890000  0.09850000  0.66650000  1
  H  H118  1  0.56720000  0.12520000  0.70150000  1
  H  H119  1  0.39570000  0.21290000  0.58960000  1
  H  H120  1  0.38830000  0.14390000  0.64860000  1
  H  H121  1  0.52470000  0.65320000  0.67490000  1
  H  H122  1  0.53060000  0.72640000  0.73190000  1
  H  H123  1  0.43960000  0.95500000  0.69310000  1
  H  H124  1  0.48110000  0.90150000  0.66650000  1
  H  H125  1  0.43280000  0.87480000  0.70150000  1
  H  H126  1  0.60430000  0.78710000  0.58960000  1
  H  H127  1  0.61170000  0.85610000  0.64860000  1
  H  H128  1  0.67770000  0.77870000  0.72920000  1
  H  H129  1  0.68850000  0.78950000  0.77590000  1
  H  H130  1  0.73230000  0.83330000  0.74490000  1
  H  H131  1  0.34680000  0.52470000  0.67490000  1
  H  H132  1  0.27360000  0.53060000  0.73190000  1
  H  H133  1  0.04500000  0.43960000  0.69310000  1
  H  H134  1  0.09850000  0.48110000  0.66650000  1
  H  H135  1  0.12520000  0.43280000  0.70150000  1
  H  H136  1  0.21290000  0.60430000  0.58960000  1
  H  H137  1  0.14390000  0.61170000  0.64860000  1
  H  H138  1  0.22130000  0.67770000  0.72920000  1
  H  H139  1  0.21050000  0.68850000  0.77590000  1
  H  H140  1  0.16670000  0.73230000  0.74490000  1
  H  H141  1  0.65320000  0.47530000  0.67490000  1
  H  H142  1  0.72640000  0.46940000  0.73190000  1
  H  H143  1  0.95500000  0.56040000  0.69310000  1
  H  H144  1  0.90150000  0.51890000  0.66650000  1
  H  H145  1  0.87480000  0.56720000  0.70150000  1
  H  H146  1  0.78710000  0.39570000  0.58960000  1
  H  H147  1  0.85610000  0.38830000  0.64860000  1
  C  C148  1  0.97530000  0.41520000  0.22260000  1
  C  C149  1  0.95720000  0.19780000  0.17110000  1
  C  C150  1  0.94260000  0.15220000  0.10130000  1
  C  C151  1  0.95580000  0.23880000  0.20590000  1
  C  C152  1  0.92300000  0.36400000  0.22190000  1
  C  C153  1  0.03600000  0.41130000  0.19330000  1
  C  C154  1  0.93600000  0.21200000  0.13100000  1
  C  C155  1  0.92920000  0.30340000  0.19270000  1
  C  C156  1  0.90900000  0.27450000  0.11570000  1
  C  C157  1  0.90840000  0.31240000  0.15230000  1
  C  C158  1  0.02470000  0.58480000  0.22260000  1
  C  C159  1  0.04280000  0.80220000  0.17110000  1
  C  C160  1  0.05740000  0.84780000  0.10130000  1
  C  C161  1  0.04420000  0.76120000  0.20590000  1
  C  C162  1  0.07700000  0.63600000  0.22190000  1
  C  C163  1  0.96400000  0.58870000  0.19330000  1
  C  C164  1  0.06400000  0.78800000  0.13100000  1
  C  C165  1  0.07080000  0.69660000  0.19270000  1
  C  C166  1  0.09100000  0.72550000  0.11570000  1
  C  C167  1  0.09160000  0.68760000  0.15230000  1
  C  C168  1  0.58480000  0.97530000  0.22260000  1
  C  C169  1  0.80220000  0.95720000  0.17110000  1
  C  C170  1  0.84780000  0.94260000  0.10130000  1
  C  C171  1  0.76120000  0.95580000  0.20590000  1
  C  C172  1  0.63600000  0.92300000  0.22190000  1
  C  C173  1  0.58870000  0.03600000  0.19330000  1
  C  C174  1  0.78800000  0.93600000  0.13100000  1
  C  C175  1  0.69660000  0.92920000  0.19270000  1
  C  C176  1  0.72550000  0.90900000  0.11570000  1
  C  C177  1  0.68760000  0.90840000  0.15230000  1
  C  C178  1  0.41520000  0.02470000  0.22260000  1
  C  C179  1  0.19780000  0.04280000  0.17110000  1
  C  C180  1  0.15220000  0.05740000  0.10130000  1
  C  C181  1  0.23880000  0.04420000  0.20590000  1
  C  C182  1  0.36400000  0.07700000  0.22190000  1
  C  C183  1  0.41130000  0.96400000  0.19330000  1
  C  C184  1  0.21200000  0.06400000  0.13100000  1
  C  C185  1  0.30340000  0.07080000  0.19270000  1
  C  C186  1  0.27450000  0.09100000  0.11570000  1
  C  C187  1  0.31240000  0.09160000  0.15230000  1
  C  C188  1  0.52470000  0.91520000  0.27740000  1
  C  C189  1  0.54280000  0.69780000  0.32890000  1
  C  C190  1  0.55740000  0.65220000  0.39870000  1
  C  C191  1  0.54420000  0.73880000  0.29410000  1
  C  C192  1  0.57700000  0.86400000  0.27810000  1
  C  C193  1  0.46400000  0.91130000  0.30670000  1
  C  C194  1  0.56400000  0.71200000  0.36900000  1
  C  C195  1  0.57080000  0.80340000  0.30730000  1
  C  C196  1  0.59100000  0.77450000  0.38430000  1
  C  C197  1  0.59160000  0.81240000  0.34770000  1
  C  C198  1  0.47530000  0.08480000  0.27740000  1
  C  C199  1  0.45720000  0.30220000  0.32890000  1
  C  C200  1  0.44260000  0.34780000  0.39870000  1
  C  C201  1  0.45580000  0.26120000  0.29410000  1
  C  C202  1  0.42300000  0.13600000  0.27810000  1
  C  C203  1  0.53600000  0.08870000  0.30670000  1
  C  C204  1  0.43600000  0.28800000  0.36900000  1
  C  C205  1  0.42920000  0.19660000  0.30730000  1
  C  C206  1  0.40900000  0.22550000  0.38430000  1
  C  C207  1  0.40840000  0.18760000  0.34770000  1
  C  C208  1  0.91520000  0.47530000  0.27740000  1
  C  C209  1  0.69780000  0.45720000  0.32890000  1
  C  C210  1  0.65220000  0.44260000  0.39870000  1
  C  C211  1  0.73880000  0.45580000  0.29410000  1
  C  C212  1  0.86400000  0.42300000  0.27810000  1
  C  C213  1  0.91130000  0.53600000  0.30670000  1
  C  C214  1  0.71200000  0.43600000  0.36900000  1
  C  C215  1  0.80340000  0.42920000  0.30730000  1
  C  C216  1  0.77450000  0.40900000  0.38430000  1
  C  C217  1  0.81240000  0.40840000  0.34770000  1
  C  C218  1  0.08480000  0.52470000  0.27740000  1
  C  C219  1  0.30220000  0.54280000  0.32890000  1
  C  C220  1  0.34780000  0.55740000  0.39870000  1
  C  C221  1  0.26120000  0.54420000  0.29410000  1
  C  C222  1  0.13600000  0.57700000  0.27810000  1
  C  C223  1  0.08870000  0.46400000  0.30670000  1
  C  C224  1  0.28800000  0.56400000  0.36900000  1
  C  C225  1  0.19660000  0.57080000  0.30730000  1
  C  C226  1  0.22550000  0.59100000  0.38430000  1
  C  C227  1  0.18760000  0.59160000  0.34770000  1
  C  C228  1  0.02470000  0.58480000  0.77740000  1
  C  C229  1  0.04280000  0.80220000  0.82890000  1
  C  C230  1  0.05740000  0.84780000  0.89870000  1
  C  C231  1  0.04420000  0.76120000  0.79410000  1
  C  C232  1  0.07700000  0.63600000  0.77810000  1
  C  C233  1  0.96400000  0.58870000  0.80670000  1
  C  C234  1  0.06400000  0.78800000  0.86900000  1
  C  C235  1  0.07080000  0.69660000  0.80730000  1
  C  C236  1  0.09100000  0.72550000  0.88430000  1
  C  C237  1  0.09160000  0.68760000  0.84770000  1
  C  C238  1  0.97530000  0.41520000  0.77740000  1
  C  C239  1  0.95720000  0.19780000  0.82890000  1
  C  C240  1  0.94260000  0.15220000  0.89870000  1
  C  C241  1  0.95580000  0.23880000  0.79410000  1
  C  C242  1  0.92300000  0.36400000  0.77810000  1
  C  C243  1  0.03600000  0.41130000  0.80670000  1
  C  C244  1  0.93600000  0.21200000  0.86900000  1
  C  C245  1  0.92920000  0.30340000  0.80730000  1
  C  C246  1  0.90900000  0.27450000  0.88430000  1
  C  C247  1  0.90840000  0.31240000  0.84770000  1
  C  C248  1  0.41520000  0.02470000  0.77740000  1
  C  C249  1  0.19780000  0.04280000  0.82890000  1
  C  C250  1  0.15220000  0.05740000  0.89870000  1
  C  C251  1  0.23880000  0.04420000  0.79410000  1
  C  C252  1  0.36400000  0.07700000  0.77810000  1
  C  C253  1  0.41130000  0.96400000  0.80670000  1
  C  C254  1  0.21200000  0.06400000  0.86900000  1
  C  C255  1  0.30340000  0.07080000  0.80730000  1
  C  C256  1  0.27450000  0.09100000  0.88430000  1
  C  C257  1  0.31240000  0.09160000  0.84770000  1
  C  C258  1  0.58480000  0.97530000  0.77740000  1
  C  C259  1  0.80220000  0.95720000  0.82890000  1
  C  C260  1  0.84780000  0.94260000  0.89870000  1
  C  C261  1  0.76120000  0.95580000  0.79410000  1
  C  C262  1  0.63600000  0.92300000  0.77810000  1
  C  C263  1  0.58870000  0.03600000  0.80670000  1
  C  C264  1  0.78800000  0.93600000  0.86900000  1
  C  C265  1  0.69660000  0.92920000  0.80730000  1
  C  C266  1  0.72550000  0.90900000  0.88430000  1
  C  C267  1  0.68760000  0.90840000  0.84770000  1
  C  C268  1  0.47530000  0.08480000  0.72260000  1
  C  C269  1  0.45720000  0.30220000  0.67110000  1
  C  C270  1  0.44260000  0.34780000  0.60130000  1
  C  C271  1  0.45580000  0.26120000  0.70590000  1
  C  C272  1  0.42300000  0.13600000  0.72190000  1
  C  C273  1  0.53600000  0.08870000  0.69330000  1
  C  C274  1  0.43600000  0.28800000  0.63100000  1
  C  C275  1  0.42920000  0.19660000  0.69270000  1
  C  C276  1  0.40900000  0.22550000  0.61570000  1
  C  C277  1  0.40840000  0.18760000  0.65230000  1
  C  C278  1  0.52470000  0.91520000  0.72260000  1
  C  C279  1  0.54280000  0.69780000  0.67110000  1
  C  C280  1  0.55740000  0.65220000  0.60130000  1
  C  C281  1  0.54420000  0.73880000  0.70590000  1
  C  C282  1  0.57700000  0.86400000  0.72190000  1
  C  C283  1  0.46400000  0.91130000  0.69330000  1
  C  C284  1  0.56400000  0.71200000  0.63100000  1
  C  C285  1  0.57080000  0.80340000  0.69270000  1
  C  C286  1  0.59100000  0.77450000  0.61570000  1
  C  C287  1  0.59160000  0.81240000  0.65230000  1
  C  C288  1  0.08480000  0.52470000  0.72260000  1
  C  C289  1  0.30220000  0.54280000  0.67110000  1
  C  C290  1  0.34780000  0.55740000  0.60130000  1
  C  C291  1  0.26120000  0.54420000  0.70590000  1
  C  C292  1  0.13600000  0.57700000  0.72190000  1
  C  C293  1  0.08870000  0.46400000  0.69330000  1
  C  C294  1  0.28800000  0.56400000  0.63100000  1
  C  C295  1  0.19660000  0.57080000  0.69270000  1
  C  C296  1  0.22550000  0.59100000  0.61570000  1
  C  C297  1  0.18760000  0.59160000  0.65230000  1
  C  C298  1  0.91520000  0.47530000  0.72260000  1
  C  C299  1  0.69780000  0.45720000  0.67110000  1
  C  C300  1  0.65220000  0.44260000  0.60130000  1
  C  C301  1  0.73880000  0.45580000  0.70590000  1
  C  C302  1  0.86400000  0.42300000  0.72190000  1
  C  C303  1  0.91130000  0.53600000  0.69330000  1
  C  C304  1  0.71200000  0.43600000  0.63100000  1
  C  C305  1  0.80340000  0.42920000  0.69270000  1
  C  C306  1  0.77450000  0.40900000  0.61570000  1
  C  C307  1  0.81240000  0.40840000  0.65230000  1
  C  C308  1  0.97150000  0.47150000  0.25000000  1
  C  C309  1  0.86760000  0.36760000  0.25000000  1
  C  C310  1  0.81230000  0.31230000  0.25000000  1
  C  C311  1  0.02850000  0.52850000  0.25000000  1
  C  C312  1  0.13240000  0.63240000  0.25000000  1
  C  C313  1  0.18770000  0.68770000  0.25000000  1
  C  C314  1  0.52850000  0.97150000  0.25000000  1
  C  C315  1  0.63240000  0.86760000  0.25000000  1
  C  C316  1  0.68770000  0.81230000  0.25000000  1
  C  C317  1  0.47150000  0.02850000  0.25000000  1
  C  C318  1  0.36760000  0.13240000  0.25000000  1
  C  C319  1  0.31230000  0.18770000  0.25000000  1
  C  C320  1  0.02850000  0.52850000  0.75000000  1
  C  C321  1  0.13240000  0.63240000  0.75000000  1
  C  C322  1  0.18770000  0.68770000  0.75000000  1
  C  C323  1  0.97150000  0.47150000  0.75000000  1
  C  C324  1  0.86760000  0.36760000  0.75000000  1
  C  C325  1  0.81230000  0.31230000  0.75000000  1
  C  C326  1  0.47150000  0.02850000  0.75000000  1
  C  C327  1  0.36760000  0.13240000  0.75000000  1
  C  C328  1  0.31230000  0.18770000  0.75000000  1
  C  C329  1  0.52850000  0.97150000  0.75000000  1
  C  C330  1  0.63240000  0.86760000  0.75000000  1
  C  C331  1  0.68770000  0.81230000  0.75000000  1
  O  O332  1  0.97140000  0.09250000  0.10960000  1
  O  O333  1  0.93800000  0.17230000  0.06080000  1
  O  O334  1  0.04000000  0.08250000  0.03610000  1
  O  O335  1  0.02860000  0.90750000  0.10960000  1
  O  O336  1  0.06200000  0.82770000  0.06080000  1
  O  O337  1  0.96000000  0.91750000  0.03610000  1
  O  O338  1  0.90750000  0.97140000  0.10960000  1
  O  O339  1  0.82770000  0.93800000  0.06080000  1
  O  O340  1  0.91750000  0.04000000  0.03610000  1
  O  O341  1  0.09250000  0.02860000  0.10960000  1
  O  O342  1  0.17230000  0.06200000  0.06080000  1
  O  O343  1  0.08250000  0.96000000  0.03610000  1
  O  O344  1  0.52860000  0.59250000  0.39040000  1
  O  O345  1  0.56200000  0.67230000  0.43920000  1
  O  O346  1  0.46000000  0.58250000  0.46390000  1
  O  O347  1  0.47140000  0.40750000  0.39040000  1
  O  O348  1  0.43800000  0.32770000  0.43920000  1
  O  O349  1  0.54000000  0.41750000  0.46390000  1
  O  O350  1  0.59250000  0.47140000  0.39040000  1
  O  O351  1  0.67230000  0.43800000  0.43920000  1
  O  O352  1  0.58250000  0.54000000  0.46390000  1
  O  O353  1  0.40750000  0.52860000  0.39040000  1
  O  O354  1  0.32770000  0.56200000  0.43920000  1
  O  O355  1  0.41750000  0.46000000  0.46390000  1
  O  O356  1  0.02860000  0.90750000  0.89040000  1
  O  O357  1  0.06200000  0.82770000  0.93920000  1
  O  O358  1  0.96000000  0.91750000  0.96390000  1
  O  O359  1  0.97140000  0.09250000  0.89040000  1
  O  O360  1  0.93800000  0.17230000  0.93920000  1
  O  O361  1  0.04000000  0.08250000  0.96390000  1
  O  O362  1  0.09250000  0.02860000  0.89040000  1
  O  O363  1  0.17230000  0.06200000  0.93920000  1
  O  O364  1  0.08250000  0.96000000  0.96390000  1
  O  O365  1  0.90750000  0.97140000  0.89040000  1
  O  O366  1  0.82770000  0.93800000  0.93920000  1
  O  O367  1  0.91750000  0.04000000  0.96390000  1
  O  O368  1  0.47140000  0.40750000  0.60960000  1
  O  O369  1  0.43800000  0.32770000  0.56080000  1
  O  O370  1  0.54000000  0.41750000  0.53610000  1
  O  O371  1  0.52860000  0.59250000  0.60960000  1
  O  O372  1  0.56200000  0.67230000  0.56080000  1
  O  O373  1  0.46000000  0.58250000  0.53610000  1
  O  O374  1  0.40750000  0.52860000  0.60960000  1
  O  O375  1  0.32770000  0.56200000  0.56080000  1
  O  O376  1  0.41750000  0.46000000  0.53610000  1
  O  O377  1  0.59250000  0.47140000  0.60960000  1
  O  O378  1  0.67230000  0.43800000  0.56080000  1
  O  O379  1  0.58250000  0.54000000  0.53610000  1
