# generated using pymatgen
data_Zr3H34(C23O6)2
_symmetry_space_group_name_H-M   'P 1'
_cell_length_a   19.11460000
_cell_length_b   19.11460000
_cell_length_c   33.04700000
_cell_angle_alpha   90.00000000
_cell_angle_beta   90.00000000
_cell_angle_gamma   90.00000000
_symmetry_Int_Tables_number   1
_chemical_formula_structural   Zr3H34(C23O6)2
_chemical_formula_sum   'Zr12 H136 C184 O48'
_cell_volume   12074.31408714
_cell_formula_units_Z   4
loop_
 _symmetry_equiv_pos_site_id
 _symmetry_equiv_pos_as_xyz
  1  'x, y, z'
loop_
 _atom_site_type_symbol
 _atom_site_label
 _atom_site_symmetry_multiplicity
 _atom_site_fract_x
 _atom_site_fract_y
 _atom_site_fract_z
 _atom_site_occupancy
  Zr  Zr0  1  0.12295000  0.04580000  0.00000000  1
  Zr  Zr1  1  0.87705000  0.95420000  0.00000000  1
  Zr  Zr2  1  0.95420000  0.12295000  0.00000000  1
  Zr  Zr3  1  0.04580000  0.87705000  0.00000000  1
  Zr  Zr4  1  0.37705000  0.54580000  0.50000000  1
  Zr  Zr5  1  0.62295000  0.45420000  0.50000000  1
  Zr  Zr6  1  0.54580000  0.62295000  0.50000000  1
  Zr  Zr7  1  0.45420000  0.37705000  0.50000000  1
  Zr  Zr8  1  0.00000000  0.00000000  0.07365000  1
  Zr  Zr9  1  0.50000000  0.50000000  0.42635000  1
  Zr  Zr10  1  0.00000000  0.00000000  0.92635000  1
  Zr  Zr11  1  0.50000000  0.50000000  0.57365000  1
  H  H12  1  0.97460000  0.15080000  0.17490000  1
  H  H13  1  0.96530000  0.22990000  0.22910000  1
  H  H14  1  0.06370000  0.44950000  0.19350000  1
  H  H15  1  0.05420000  0.36810000  0.19130000  1
  H  H16  1  0.00880000  0.41690000  0.16370000  1
  H  H17  1  0.89990000  0.28780000  0.09040000  1
  H  H18  1  0.89070000  0.36530000  0.14560000  1
  H  H19  1  0.02540000  0.84920000  0.17490000  1
  H  H20  1  0.03470000  0.77010000  0.22910000  1
  H  H21  1  0.93630000  0.55050000  0.19350000  1
  H  H22  1  0.94580000  0.63190000  0.19130000  1
  H  H23  1  0.99120000  0.58310000  0.16370000  1
  H  H24  1  0.10010000  0.71220000  0.09040000  1
  H  H25  1  0.10930000  0.63470000  0.14560000  1
  H  H26  1  0.17750000  0.71980000  0.22880000  1
  H  H27  1  0.18670000  0.71050000  0.27560000  1
  H  H28  1  0.23170000  0.66560000  0.24560000  1
  H  H29  1  0.84920000  0.97460000  0.17490000  1
  H  H30  1  0.77010000  0.96530000  0.22910000  1
  H  H31  1  0.55050000  0.06370000  0.19350000  1
  H  H32  1  0.63190000  0.05420000  0.19130000  1
  H  H33  1  0.58310000  0.00880000  0.16370000  1
  H  H34  1  0.71220000  0.89990000  0.09040000  1
  H  H35  1  0.63470000  0.89070000  0.14560000  1
  H  H36  1  0.71980000  0.82250000  0.22880000  1
  H  H37  1  0.71050000  0.81330000  0.27560000  1
  H  H38  1  0.66560000  0.76830000  0.24560000  1
  H  H39  1  0.15080000  0.02540000  0.17490000  1
  H  H40  1  0.22990000  0.03470000  0.22910000  1
  H  H41  1  0.44950000  0.93630000  0.19350000  1
  H  H42  1  0.36810000  0.94580000  0.19130000  1
  H  H43  1  0.41690000  0.99120000  0.16370000  1
  H  H44  1  0.28780000  0.10010000  0.09040000  1
  H  H45  1  0.36530000  0.10930000  0.14560000  1
  H  H46  1  0.52540000  0.65080000  0.32510000  1
  H  H47  1  0.53470000  0.72990000  0.27090000  1
  H  H48  1  0.43630000  0.94950000  0.30650000  1
  H  H49  1  0.44580000  0.86810000  0.30870000  1
  H  H50  1  0.49120000  0.91690000  0.33630000  1
  H  H51  1  0.60010000  0.78780000  0.40960000  1
  H  H52  1  0.60930000  0.86530000  0.35440000  1
  H  H53  1  0.47460000  0.34920000  0.32510000  1
  H  H54  1  0.46530000  0.27010000  0.27090000  1
  H  H55  1  0.56370000  0.05050000  0.30650000  1
  H  H56  1  0.55420000  0.13190000  0.30870000  1
  H  H57  1  0.50880000  0.08310000  0.33630000  1
  H  H58  1  0.39990000  0.21220000  0.40960000  1
  H  H59  1  0.39070000  0.13470000  0.35440000  1
  H  H60  1  0.32250000  0.21980000  0.27120000  1
  H  H61  1  0.31330000  0.21050000  0.22440000  1
  H  H62  1  0.26830000  0.16560000  0.25440000  1
  H  H63  1  0.65080000  0.47460000  0.32510000  1
  H  H64  1  0.72990000  0.46530000  0.27090000  1
  H  H65  1  0.94950000  0.56370000  0.30650000  1
  H  H66  1  0.86810000  0.55420000  0.30870000  1
  H  H67  1  0.91690000  0.50880000  0.33630000  1
  H  H68  1  0.78780000  0.39990000  0.40960000  1
  H  H69  1  0.86530000  0.39070000  0.35440000  1
  H  H70  1  0.78020000  0.32250000  0.27120000  1
  H  H71  1  0.78950000  0.31330000  0.22440000  1
  H  H72  1  0.83440000  0.26830000  0.25440000  1
  H  H73  1  0.34920000  0.52540000  0.32510000  1
  H  H74  1  0.27010000  0.53470000  0.27090000  1
  H  H75  1  0.05050000  0.43630000  0.30650000  1
  H  H76  1  0.13190000  0.44580000  0.30870000  1
  H  H77  1  0.08310000  0.49120000  0.33630000  1
  H  H78  1  0.21220000  0.60010000  0.40960000  1
  H  H79  1  0.13470000  0.60930000  0.35440000  1
  H  H80  1  0.02540000  0.84920000  0.82510000  1
  H  H81  1  0.03470000  0.77010000  0.77090000  1
  H  H82  1  0.93630000  0.55050000  0.80650000  1
  H  H83  1  0.94580000  0.63190000  0.80870000  1
  H  H84  1  0.99120000  0.58310000  0.83630000  1
  H  H85  1  0.10010000  0.71220000  0.90960000  1
  H  H86  1  0.10930000  0.63470000  0.85440000  1
  H  H87  1  0.17750000  0.71980000  0.77120000  1
  H  H88  1  0.18670000  0.71050000  0.72440000  1
  H  H89  1  0.23170000  0.66560000  0.75440000  1
  H  H90  1  0.97460000  0.15080000  0.82510000  1
  H  H91  1  0.96530000  0.22990000  0.77090000  1
  H  H92  1  0.06370000  0.44950000  0.80650000  1
  H  H93  1  0.05420000  0.36810000  0.80870000  1
  H  H94  1  0.00880000  0.41690000  0.83630000  1
  H  H95  1  0.89990000  0.28780000  0.90960000  1
  H  H96  1  0.89070000  0.36530000  0.85440000  1
  H  H97  1  0.15080000  0.02540000  0.82510000  1
  H  H98  1  0.22990000  0.03470000  0.77090000  1
  H  H99  1  0.44950000  0.93630000  0.80650000  1
  H  H100  1  0.36810000  0.94580000  0.80870000  1
  H  H101  1  0.41690000  0.99120000  0.83630000  1
  H  H102  1  0.28780000  0.10010000  0.90960000  1
  H  H103  1  0.36530000  0.10930000  0.85440000  1
  H  H104  1  0.28020000  0.17750000  0.77120000  1
  H  H105  1  0.28950000  0.18670000  0.72440000  1
  H  H106  1  0.33440000  0.23170000  0.75440000  1
  H  H107  1  0.84920000  0.97460000  0.82510000  1
  H  H108  1  0.77010000  0.96530000  0.77090000  1
  H  H109  1  0.55050000  0.06370000  0.80650000  1
  H  H110  1  0.63190000  0.05420000  0.80870000  1
  H  H111  1  0.58310000  0.00880000  0.83630000  1
  H  H112  1  0.71220000  0.89990000  0.90960000  1
  H  H113  1  0.63470000  0.89070000  0.85440000  1
  H  H114  1  0.71980000  0.82250000  0.77120000  1
  H  H115  1  0.71050000  0.81330000  0.72440000  1
  H  H116  1  0.66560000  0.76830000  0.75440000  1
  H  H117  1  0.47460000  0.34920000  0.67490000  1
  H  H118  1  0.46530000  0.27010000  0.72910000  1
  H  H119  1  0.56370000  0.05050000  0.69350000  1
  H  H120  1  0.55420000  0.13190000  0.69130000  1
  H  H121  1  0.50880000  0.08310000  0.66370000  1
  H  H122  1  0.39990000  0.21220000  0.59040000  1
  H  H123  1  0.39070000  0.13470000  0.64560000  1
  H  H124  1  0.52540000  0.65080000  0.67490000  1
  H  H125  1  0.53470000  0.72990000  0.72910000  1
  H  H126  1  0.43630000  0.94950000  0.69350000  1
  H  H127  1  0.44580000  0.86810000  0.69130000  1
  H  H128  1  0.49120000  0.91690000  0.66370000  1
  H  H129  1  0.60010000  0.78780000  0.59040000  1
  H  H130  1  0.60930000  0.86530000  0.64560000  1
  H  H131  1  0.34920000  0.52540000  0.67490000  1
  H  H132  1  0.27010000  0.53470000  0.72910000  1
  H  H133  1  0.05050000  0.43630000  0.69350000  1
  H  H134  1  0.13190000  0.44580000  0.69130000  1
  H  H135  1  0.08310000  0.49120000  0.66370000  1
  H  H136  1  0.21220000  0.60010000  0.59040000  1
  H  H137  1  0.13470000  0.60930000  0.64560000  1
  H  H138  1  0.65080000  0.47460000  0.67490000  1
  H  H139  1  0.72990000  0.46530000  0.72910000  1
  H  H140  1  0.94950000  0.56370000  0.69350000  1
  H  H141  1  0.86810000  0.55420000  0.69130000  1
  H  H142  1  0.91690000  0.50880000  0.66370000  1
  H  H143  1  0.78780000  0.39990000  0.59040000  1
  H  H144  1  0.86530000  0.39070000  0.64560000  1
  H  H145  1  0.78020000  0.32250000  0.72880000  1
  H  H146  1  0.78950000  0.31330000  0.77560000  1
  H  H147  1  0.83440000  0.26830000  0.74560000  1
  C  C148  1  0.97500000  0.41620000  0.22250000  1
  C  C149  1  0.95730000  0.19540000  0.17000000  1
  C  C150  1  0.94350000  0.15320000  0.09970000  1
  C  C151  1  0.95300000  0.24130000  0.20270000  1
  C  C152  1  0.92270000  0.36550000  0.22130000  1
  C  C153  1  0.03060000  0.41230000  0.18970000  1
  C  C154  1  0.93740000  0.21160000  0.13030000  1
  C  C155  1  0.92770000  0.30690000  0.19060000  1
  C  C156  1  0.91210000  0.27640000  0.11680000  1
  C  C157  1  0.90840000  0.32080000  0.15050000  1
  C  C158  1  0.02500000  0.58380000  0.22250000  1
  C  C159  1  0.04270000  0.80460000  0.17000000  1
  C  C160  1  0.05650000  0.84680000  0.09970000  1
  C  C161  1  0.04700000  0.75870000  0.20270000  1
  C  C162  1  0.07730000  0.63450000  0.22130000  1
  C  C163  1  0.96940000  0.58770000  0.18970000  1
  C  C164  1  0.06260000  0.78840000  0.13030000  1
  C  C165  1  0.07230000  0.69310000  0.19060000  1
  C  C166  1  0.08790000  0.72360000  0.11680000  1
  C  C167  1  0.09160000  0.67920000  0.15050000  1
  C  C168  1  0.58380000  0.97500000  0.22250000  1
  C  C169  1  0.80460000  0.95730000  0.17000000  1
  C  C170  1  0.84680000  0.94350000  0.09970000  1
  C  C171  1  0.75870000  0.95300000  0.20270000  1
  C  C172  1  0.63450000  0.92270000  0.22130000  1
  C  C173  1  0.58770000  0.03060000  0.18970000  1
  C  C174  1  0.78840000  0.93740000  0.13030000  1
  C  C175  1  0.69310000  0.92770000  0.19060000  1
  C  C176  1  0.72360000  0.91210000  0.11680000  1
  C  C177  1  0.67920000  0.90840000  0.15050000  1
  C  C178  1  0.41620000  0.02500000  0.22250000  1
  C  C179  1  0.19540000  0.04270000  0.17000000  1
  C  C180  1  0.15320000  0.05650000  0.09970000  1
  C  C181  1  0.24130000  0.04700000  0.20270000  1
  C  C182  1  0.36550000  0.07730000  0.22130000  1
  C  C183  1  0.41230000  0.96940000  0.18970000  1
  C  C184  1  0.21160000  0.06260000  0.13030000  1
  C  C185  1  0.30690000  0.07230000  0.19060000  1
  C  C186  1  0.27640000  0.08790000  0.11680000  1
  C  C187  1  0.32080000  0.09160000  0.15050000  1
  C  C188  1  0.52500000  0.91620000  0.27750000  1
  C  C189  1  0.54270000  0.69540000  0.33000000  1
  C  C190  1  0.55650000  0.65320000  0.40030000  1
  C  C191  1  0.54700000  0.74130000  0.29730000  1
  C  C192  1  0.57730000  0.86550000  0.27870000  1
  C  C193  1  0.46940000  0.91230000  0.31030000  1
  C  C194  1  0.56260000  0.71160000  0.36970000  1
  C  C195  1  0.57230000  0.80690000  0.30940000  1
  C  C196  1  0.58790000  0.77640000  0.38320000  1
  C  C197  1  0.59160000  0.82080000  0.34950000  1
  C  C198  1  0.47500000  0.08380000  0.27750000  1
  C  C199  1  0.45730000  0.30460000  0.33000000  1
  C  C200  1  0.44350000  0.34680000  0.40030000  1
  C  C201  1  0.45300000  0.25870000  0.29730000  1
  C  C202  1  0.42270000  0.13450000  0.27870000  1
  C  C203  1  0.53060000  0.08770000  0.31030000  1
  C  C204  1  0.43740000  0.28840000  0.36970000  1
  C  C205  1  0.42770000  0.19310000  0.30940000  1
  C  C206  1  0.41210000  0.22360000  0.38320000  1
  C  C207  1  0.40840000  0.17920000  0.34950000  1
  C  C208  1  0.91620000  0.47500000  0.27750000  1
  C  C209  1  0.69540000  0.45730000  0.33000000  1
  C  C210  1  0.65320000  0.44350000  0.40030000  1
  C  C211  1  0.74130000  0.45300000  0.29730000  1
  C  C212  1  0.86550000  0.42270000  0.27870000  1
  C  C213  1  0.91230000  0.53060000  0.31030000  1
  C  C214  1  0.71160000  0.43740000  0.36970000  1
  C  C215  1  0.80690000  0.42770000  0.30940000  1
  C  C216  1  0.77640000  0.41210000  0.38320000  1
  C  C217  1  0.82080000  0.40840000  0.34950000  1
  C  C218  1  0.08380000  0.52500000  0.27750000  1
  C  C219  1  0.30460000  0.54270000  0.33000000  1
  C  C220  1  0.34680000  0.55650000  0.40030000  1
  C  C221  1  0.25870000  0.54700000  0.29730000  1
  C  C222  1  0.13450000  0.57730000  0.27870000  1
  C  C223  1  0.08770000  0.46940000  0.31030000  1
  C  C224  1  0.28840000  0.56260000  0.36970000  1
  C  C225  1  0.19310000  0.57230000  0.30940000  1
  C  C226  1  0.22360000  0.58790000  0.38320000  1
  C  C227  1  0.17920000  0.59160000  0.34950000  1
  C  C228  1  0.02500000  0.58380000  0.77750000  1
  C  C229  1  0.04270000  0.80460000  0.83000000  1
  C  C230  1  0.05650000  0.84680000  0.90030000  1
  C  C231  1  0.04700000  0.75870000  0.79730000  1
  C  C232  1  0.07730000  0.63450000  0.77870000  1
  C  C233  1  0.96940000  0.58770000  0.81030000  1
  C  C234  1  0.06260000  0.78840000  0.86970000  1
  C  C235  1  0.07230000  0.69310000  0.80940000  1
  C  C236  1  0.08790000  0.72360000  0.88320000  1
  C  C237  1  0.09160000  0.67920000  0.84950000  1
  C  C238  1  0.97500000  0.41620000  0.77750000  1
  C  C239  1  0.95730000  0.19540000  0.83000000  1
  C  C240  1  0.94350000  0.15320000  0.90030000  1
  C  C241  1  0.95300000  0.24130000  0.79730000  1
  C  C242  1  0.92270000  0.36550000  0.77870000  1
  C  C243  1  0.03060000  0.41230000  0.81030000  1
  C  C244  1  0.93740000  0.21160000  0.86970000  1
  C  C245  1  0.92770000  0.30690000  0.80940000  1
  C  C246  1  0.91210000  0.27640000  0.88320000  1
  C  C247  1  0.90840000  0.32080000  0.84950000  1
  C  C248  1  0.41620000  0.02500000  0.77750000  1
  C  C249  1  0.19540000  0.04270000  0.83000000  1
  C  C250  1  0.15320000  0.05650000  0.90030000  1
  C  C251  1  0.24130000  0.04700000  0.79730000  1
  C  C252  1  0.36550000  0.07730000  0.77870000  1
  C  C253  1  0.41230000  0.96940000  0.81030000  1
  C  C254  1  0.21160000  0.06260000  0.86970000  1
  C  C255  1  0.30690000  0.07230000  0.80940000  1
  C  C256  1  0.27640000  0.08790000  0.88320000  1
  C  C257  1  0.32080000  0.09160000  0.84950000  1
  C  C258  1  0.58380000  0.97500000  0.77750000  1
  C  C259  1  0.80460000  0.95730000  0.83000000  1
  C  C260  1  0.84680000  0.94350000  0.90030000  1
  C  C261  1  0.75870000  0.95300000  0.79730000  1
  C  C262  1  0.63450000  0.92270000  0.77870000  1
  C  C263  1  0.58770000  0.03060000  0.81030000  1
  C  C264  1  0.78840000  0.93740000  0.86970000  1
  C  C265  1  0.69310000  0.92770000  0.80940000  1
  C  C266  1  0.72360000  0.91210000  0.88320000  1
  C  C267  1  0.67920000  0.90840000  0.84950000  1
  C  C268  1  0.47500000  0.08380000  0.72250000  1
  C  C269  1  0.45730000  0.30460000  0.67000000  1
  C  C270  1  0.44350000  0.34680000  0.59970000  1
  C  C271  1  0.45300000  0.25870000  0.70270000  1
  C  C272  1  0.42270000  0.13450000  0.72130000  1
  C  C273  1  0.53060000  0.08770000  0.68970000  1
  C  C274  1  0.43740000  0.28840000  0.63030000  1
  C  C275  1  0.42770000  0.19310000  0.69060000  1
  C  C276  1  0.41210000  0.22360000  0.61680000  1
  C  C277  1  0.40840000  0.17920000  0.65050000  1
  C  C278  1  0.52500000  0.91620000  0.72250000  1
  C  C279  1  0.54270000  0.69540000  0.67000000  1
  C  C280  1  0.55650000  0.65320000  0.59970000  1
  C  C281  1  0.54700000  0.74130000  0.70270000  1
  C  C282  1  0.57730000  0.86550000  0.72130000  1
  C  C283  1  0.46940000  0.91230000  0.68970000  1
  C  C284  1  0.56260000  0.71160000  0.63030000  1
  C  C285  1  0.57230000  0.80690000  0.69060000  1
  C  C286  1  0.58790000  0.77640000  0.61680000  1
  C  C287  1  0.59160000  0.82080000  0.65050000  1
  C  C288  1  0.08380000  0.52500000  0.72250000  1
  C  C289  1  0.30460000  0.54270000  0.67000000  1
  C  C290  1  0.34680000  0.55650000  0.59970000  1
  C  C291  1  0.25870000  0.54700000  0.70270000  1
  C  C292  1  0.13450000  0.57730000  0.72130000  1
  C  C293  1  0.08770000  0.46940000  0.68970000  1
  C  C294  1  0.28840000  0.56260000  0.63030000  1
  C  C295  1  0.19310000  0.57230000  0.69060000  1
  C  C296  1  0.22360000  0.58790000  0.61680000  1
  C  C297  1  0.17920000  0.59160000  0.65050000  1
  C  C298  1  0.91620000  0.47500000  0.72250000  1
  C  C299  1  0.69540000  0.45730000  0.67000000  1
  C  C300  1  0.65320000  0.44350000  0.59970000  1
  C  C301  1  0.74130000  0.45300000  0.70270000  1
  C  C302  1  0.86550000  0.42270000  0.72130000  1
  C  C303  1  0.91230000  0.53060000  0.68970000  1
  C  C304  1  0.71160000  0.43740000  0.63030000  1
  C  C305  1  0.80690000  0.42770000  0.69060000  1
  C  C306  1  0.77640000  0.41210000  0.61680000  1
  C  C307  1  0.82080000  0.40840000  0.65050000  1
  C  C308  1  0.97212000  0.47212000  0.25000000  1
  C  C309  1  0.86890000  0.36890000  0.25000000  1
  C  C310  1  0.81320000  0.31320000  0.25000000  1
  C  C311  1  0.02788000  0.52788000  0.25000000  1
  C  C312  1  0.13110000  0.63110000  0.25000000  1
  C  C313  1  0.18680000  0.68680000  0.25000000  1
  C  C314  1  0.52788000  0.97212000  0.25000000  1
  C  C315  1  0.63110000  0.86890000  0.25000000  1
  C  C316  1  0.68680000  0.81320000  0.25000000  1
  C  C317  1  0.47212000  0.02788000  0.25000000  1
  C  C318  1  0.36890000  0.13110000  0.25000000  1
  C  C319  1  0.31320000  0.18680000  0.25000000  1
  C  C320  1  0.02788000  0.52788000  0.75000000  1
  C  C321  1  0.13110000  0.63110000  0.75000000  1
  C  C322  1  0.18680000  0.68680000  0.75000000  1
  C  C323  1  0.97212000  0.47212000  0.75000000  1
  C  C324  1  0.86890000  0.36890000  0.75000000  1
  C  C325  1  0.81320000  0.31320000  0.75000000  1
  C  C326  1  0.47212000  0.02788000  0.75000000  1
  C  C327  1  0.36890000  0.13110000  0.75000000  1
  C  C328  1  0.31320000  0.18680000  0.75000000  1
  C  C329  1  0.52788000  0.97212000  0.75000000  1
  C  C330  1  0.63110000  0.86890000  0.75000000  1
  C  C331  1  0.68680000  0.81320000  0.75000000  1
  O  O332  1  0.97110000  0.09280000  0.10980000  1
  O  O333  1  0.93770000  0.17460000  0.06060000  1
  O  O334  1  0.03900000  0.08580000  0.03590000  1
  O  O335  1  0.02890000  0.90720000  0.10980000  1
  O  O336  1  0.06230000  0.82540000  0.06060000  1
  O  O337  1  0.96100000  0.91420000  0.03590000  1
  O  O338  1  0.90720000  0.97110000  0.10980000  1
  O  O339  1  0.82540000  0.93770000  0.06060000  1
  O  O340  1  0.91420000  0.03900000  0.03590000  1
  O  O341  1  0.09280000  0.02890000  0.10980000  1
  O  O342  1  0.17460000  0.06230000  0.06060000  1
  O  O343  1  0.08580000  0.96100000  0.03590000  1
  O  O344  1  0.52890000  0.59280000  0.39020000  1
  O  O345  1  0.56230000  0.67460000  0.43940000  1
  O  O346  1  0.46100000  0.58580000  0.46410000  1
  O  O347  1  0.47110000  0.40720000  0.39020000  1
  O  O348  1  0.43770000  0.32540000  0.43940000  1
  O  O349  1  0.53900000  0.41420000  0.46410000  1
  O  O350  1  0.59280000  0.47110000  0.39020000  1
  O  O351  1  0.67460000  0.43770000  0.43940000  1
  O  O352  1  0.58580000  0.53900000  0.46410000  1
  O  O353  1  0.40720000  0.52890000  0.39020000  1
  O  O354  1  0.32540000  0.56230000  0.43940000  1
  O  O355  1  0.41420000  0.46100000  0.46410000  1
  O  O356  1  0.02890000  0.90720000  0.89020000  1
  O  O357  1  0.06230000  0.82540000  0.93940000  1
  O  O358  1  0.96100000  0.91420000  0.96410000  1
  O  O359  1  0.97110000  0.09280000  0.89020000  1
  O  O360  1  0.93770000  0.17460000  0.93940000  1
  O  O361  1  0.03900000  0.08580000  0.96410000  1
  O  O362  1  0.09280000  0.02890000  0.89020000  1
  O  O363  1  0.17460000  0.06230000  0.93940000  1
  O  O364  1  0.08580000  0.96100000  0.96410000  1
  O  O365  1  0.90720000  0.97110000  0.89020000  1
  O  O366  1  0.82540000  0.93770000  0.93940000  1
  O  O367  1  0.91420000  0.03900000  0.96410000  1
  O  O368  1  0.47110000  0.40720000  0.60980000  1
  O  O369  1  0.43770000  0.32540000  0.56060000  1
  O  O370  1  0.53900000  0.41420000  0.53590000  1
  O  O371  1  0.52890000  0.59280000  0.60980000  1
  O  O372  1  0.56230000  0.67460000  0.56060000  1
  O  O373  1  0.46100000  0.58580000  0.53590000  1
  O  O374  1  0.40720000  0.52890000  0.60980000  1
  O  O375  1  0.32540000  0.56230000  0.56060000  1
  O  O376  1  0.41420000  0.46100000  0.53590000  1
  O  O377  1  0.59280000  0.47110000  0.60980000  1
  O  O378  1  0.67460000  0.43770000  0.56060000  1
  O  O379  1  0.58580000  0.53900000  0.53590000  1
