# generated using pymatgen
data_Zr3H34(C23O6)2
_symmetry_space_group_name_H-M   'P 1'
_cell_length_a   19.33480000
_cell_length_b   19.33480000
_cell_length_c   32.76800000
_cell_angle_alpha   90.00000000
_cell_angle_beta   90.00000000
_cell_angle_gamma   90.00000000
_symmetry_Int_Tables_number   1
_chemical_formula_structural   Zr3H34(C23O6)2
_chemical_formula_sum   'Zr12 H136 C184 O48'
_cell_volume   12249.80860240
_cell_formula_units_Z   4
loop_
 _symmetry_equiv_pos_site_id
 _symmetry_equiv_pos_as_xyz
  1  'x, y, z'
loop_
 _atom_site_type_symbol
 _atom_site_label
 _atom_site_symmetry_multiplicity
 _atom_site_fract_x
 _atom_site_fract_y
 _atom_site_fract_z
 _atom_site_occupancy
  Zr  Zr0  1  0.12160000  0.04590000  0.00000000  1
  Zr  Zr1  1  0.87840000  0.95410000  0.00000000  1
  Zr  Zr2  1  0.95410000  0.12160000  0.00000000  1
  Zr  Zr3  1  0.04590000  0.87840000  0.00000000  1
  Zr  Zr4  1  0.37840000  0.54590000  0.50000000  1
  Zr  Zr5  1  0.62160000  0.45410000  0.50000000  1
  Zr  Zr6  1  0.54590000  0.62160000  0.50000000  1
  Zr  Zr7  1  0.45410000  0.37840000  0.50000000  1
  Zr  Zr8  1  0.00000000  0.00000000  0.07467000  1
  Zr  Zr9  1  0.50000000  0.50000000  0.42533000  1
  Zr  Zr10  1  0.00000000  0.00000000  0.92533000  1
  Zr  Zr11  1  0.50000000  0.50000000  0.57467000  1
  H  H12  1  0.97050000  0.14670000  0.17980000  1
  H  H13  1  0.96630000  0.23670000  0.22630000  1
  H  H14  1  0.02200000  0.40100000  0.16680000  1
  H  H15  1  0.06850000  0.37630000  0.20320000  1
  H  H16  1  0.06150000  0.45540000  0.19350000  1
  H  H17  1  0.90150000  0.27940000  0.09480000  1
  H  H18  1  0.89350000  0.36830000  0.14200000  1
  H  H19  1  0.82280000  0.28160000  0.22840000  1
  H  H20  1  0.81430000  0.29010000  0.27570000  1
  H  H21  1  0.76950000  0.33490000  0.24590000  1
  H  H22  1  0.02950000  0.85330000  0.17980000  1
  H  H23  1  0.03370000  0.76330000  0.22630000  1
  H  H24  1  0.97800000  0.59900000  0.16680000  1
  H  H25  1  0.93150000  0.62370000  0.20320000  1
  H  H26  1  0.93850000  0.54460000  0.19350000  1
  H  H27  1  0.09850000  0.72060000  0.09480000  1
  H  H28  1  0.10650000  0.63170000  0.14200000  1
  H  H29  1  0.85330000  0.97050000  0.17980000  1
  H  H30  1  0.76330000  0.96630000  0.22630000  1
  H  H31  1  0.59900000  0.02200000  0.16680000  1
  H  H32  1  0.62370000  0.06850000  0.20320000  1
  H  H33  1  0.54460000  0.06150000  0.19350000  1
  H  H34  1  0.72060000  0.90150000  0.09480000  1
  H  H35  1  0.63170000  0.89350000  0.14200000  1
  H  H36  1  0.71840000  0.82280000  0.22840000  1
  H  H37  1  0.70990000  0.81430000  0.27570000  1
  H  H38  1  0.66510000  0.76950000  0.24590000  1
  H  H39  1  0.14670000  0.02950000  0.17980000  1
  H  H40  1  0.23670000  0.03370000  0.22630000  1
  H  H41  1  0.40100000  0.97800000  0.16680000  1
  H  H42  1  0.37630000  0.93150000  0.20320000  1
  H  H43  1  0.45540000  0.93850000  0.19350000  1
  H  H44  1  0.27940000  0.09850000  0.09480000  1
  H  H45  1  0.36830000  0.10650000  0.14200000  1
  H  H46  1  0.52950000  0.64670000  0.32020000  1
  H  H47  1  0.53370000  0.73670000  0.27370000  1
  H  H48  1  0.47800000  0.90100000  0.33320000  1
  H  H49  1  0.43150000  0.87630000  0.29680000  1
  H  H50  1  0.43850000  0.95540000  0.30650000  1
  H  H51  1  0.59850000  0.77940000  0.40520000  1
  H  H52  1  0.60650000  0.86830000  0.35800000  1
  H  H53  1  0.47050000  0.35330000  0.32020000  1
  H  H54  1  0.46630000  0.26330000  0.27370000  1
  H  H55  1  0.52200000  0.09900000  0.33320000  1
  H  H56  1  0.56850000  0.12370000  0.29680000  1
  H  H57  1  0.56150000  0.04460000  0.30650000  1
  H  H58  1  0.40150000  0.22060000  0.40520000  1
  H  H59  1  0.39350000  0.13170000  0.35800000  1
  H  H60  1  0.32280000  0.21840000  0.27160000  1
  H  H61  1  0.31430000  0.20990000  0.22430000  1
  H  H62  1  0.26950000  0.16510000  0.25410000  1
  H  H63  1  0.64670000  0.47050000  0.32020000  1
  H  H64  1  0.73670000  0.46630000  0.27370000  1
  H  H65  1  0.90100000  0.52200000  0.33320000  1
  H  H66  1  0.87630000  0.56850000  0.29680000  1
  H  H67  1  0.95540000  0.56150000  0.30650000  1
  H  H68  1  0.77940000  0.40150000  0.40520000  1
  H  H69  1  0.86830000  0.39350000  0.35800000  1
  H  H70  1  0.35330000  0.52950000  0.32020000  1
  H  H71  1  0.26330000  0.53370000  0.27370000  1
  H  H72  1  0.09900000  0.47800000  0.33320000  1
  H  H73  1  0.12370000  0.43150000  0.29680000  1
  H  H74  1  0.04460000  0.43850000  0.30650000  1
  H  H75  1  0.22060000  0.59850000  0.40520000  1
  H  H76  1  0.13170000  0.60650000  0.35800000  1
  H  H77  1  0.21840000  0.67720000  0.27160000  1
  H  H78  1  0.20990000  0.68570000  0.22430000  1
  H  H79  1  0.16510000  0.73050000  0.25410000  1
  H  H80  1  0.02950000  0.85330000  0.82020000  1
  H  H81  1  0.03370000  0.76330000  0.77370000  1
  H  H82  1  0.97800000  0.59900000  0.83320000  1
  H  H83  1  0.93150000  0.62370000  0.79680000  1
  H  H84  1  0.93850000  0.54460000  0.80650000  1
  H  H85  1  0.09850000  0.72060000  0.90520000  1
  H  H86  1  0.10650000  0.63170000  0.85800000  1
  H  H87  1  0.17720000  0.71840000  0.77160000  1
  H  H88  1  0.18570000  0.70990000  0.72430000  1
  H  H89  1  0.23050000  0.66510000  0.75410000  1
  H  H90  1  0.97050000  0.14670000  0.82020000  1
  H  H91  1  0.96630000  0.23670000  0.77370000  1
  H  H92  1  0.02200000  0.40100000  0.83320000  1
  H  H93  1  0.06850000  0.37630000  0.79680000  1
  H  H94  1  0.06150000  0.45540000  0.80650000  1
  H  H95  1  0.90150000  0.27940000  0.90520000  1
  H  H96  1  0.89350000  0.36830000  0.85800000  1
  H  H97  1  0.14670000  0.02950000  0.82020000  1
  H  H98  1  0.23670000  0.03370000  0.77370000  1
  H  H99  1  0.40100000  0.97800000  0.83320000  1
  H  H100  1  0.37630000  0.93150000  0.79680000  1
  H  H101  1  0.45540000  0.93850000  0.80650000  1
  H  H102  1  0.27940000  0.09850000  0.90520000  1
  H  H103  1  0.36830000  0.10650000  0.85800000  1
  H  H104  1  0.28160000  0.17720000  0.77160000  1
  H  H105  1  0.29010000  0.18570000  0.72430000  1
  H  H106  1  0.33490000  0.23050000  0.75410000  1
  H  H107  1  0.85330000  0.97050000  0.82020000  1
  H  H108  1  0.76330000  0.96630000  0.77370000  1
  H  H109  1  0.59900000  0.02200000  0.83320000  1
  H  H110  1  0.62370000  0.06850000  0.79680000  1
  H  H111  1  0.54460000  0.06150000  0.80650000  1
  H  H112  1  0.72060000  0.90150000  0.90520000  1
  H  H113  1  0.63170000  0.89350000  0.85800000  1
  H  H114  1  0.47050000  0.35330000  0.67980000  1
  H  H115  1  0.46630000  0.26330000  0.72630000  1
  H  H116  1  0.52200000  0.09900000  0.66680000  1
  H  H117  1  0.56850000  0.12370000  0.70320000  1
  H  H118  1  0.56150000  0.04460000  0.69350000  1
  H  H119  1  0.40150000  0.22060000  0.59480000  1
  H  H120  1  0.39350000  0.13170000  0.64200000  1
  H  H121  1  0.52950000  0.64670000  0.67980000  1
  H  H122  1  0.53370000  0.73670000  0.72630000  1
  H  H123  1  0.47800000  0.90100000  0.66680000  1
  H  H124  1  0.43150000  0.87630000  0.70320000  1
  H  H125  1  0.43850000  0.95540000  0.69350000  1
  H  H126  1  0.59850000  0.77940000  0.59480000  1
  H  H127  1  0.60650000  0.86830000  0.64200000  1
  H  H128  1  0.67720000  0.78160000  0.72840000  1
  H  H129  1  0.68570000  0.79010000  0.77570000  1
  H  H130  1  0.73050000  0.83490000  0.74590000  1
  H  H131  1  0.35330000  0.52950000  0.67980000  1
  H  H132  1  0.26330000  0.53370000  0.72630000  1
  H  H133  1  0.09900000  0.47800000  0.66680000  1
  H  H134  1  0.12370000  0.43150000  0.70320000  1
  H  H135  1  0.04460000  0.43850000  0.69350000  1
  H  H136  1  0.22060000  0.59850000  0.59480000  1
  H  H137  1  0.13170000  0.60650000  0.64200000  1
  H  H138  1  0.64670000  0.47050000  0.67980000  1
  H  H139  1  0.73670000  0.46630000  0.72630000  1
  H  H140  1  0.90100000  0.52200000  0.66680000  1
  H  H141  1  0.87630000  0.56850000  0.70320000  1
  H  H142  1  0.95540000  0.56150000  0.69350000  1
  H  H143  1  0.77940000  0.40150000  0.59480000  1
  H  H144  1  0.86830000  0.39350000  0.64200000  1
  H  H145  1  0.78160000  0.32280000  0.72840000  1
  H  H146  1  0.79010000  0.31430000  0.77570000  1
  H  H147  1  0.83490000  0.26950000  0.74590000  1
  C  C148  1  0.97550000  0.41640000  0.22260000  1
  C  C149  1  0.95540000  0.19040000  0.17190000  1
  C  C150  1  0.94250000  0.14520000  0.10200000  1
  C  C151  1  0.95060000  0.24430000  0.19980000  1
  C  C152  1  0.92190000  0.36740000  0.22150000  1
  C  C153  1  0.03770000  0.41190000  0.19380000  1
  C  C154  1  0.93660000  0.20460000  0.13170000  1
  C  C155  1  0.92340000  0.30930000  0.19030000  1
  C  C156  1  0.91360000  0.27060000  0.12180000  1
  C  C157  1  0.90750000  0.32430000  0.14990000  1
  C  C158  1  0.02450000  0.58360000  0.22260000  1
  C  C159  1  0.04460000  0.80960000  0.17190000  1
  C  C160  1  0.05750000  0.85480000  0.10200000  1
  C  C161  1  0.04940000  0.75570000  0.19980000  1
  C  C162  1  0.07810000  0.63260000  0.22150000  1
  C  C163  1  0.96230000  0.58810000  0.19380000  1
  C  C164  1  0.06340000  0.79540000  0.13170000  1
  C  C165  1  0.07660000  0.69070000  0.19030000  1
  C  C166  1  0.08640000  0.72940000  0.12180000  1
  C  C167  1  0.09250000  0.67570000  0.14990000  1
  C  C168  1  0.58360000  0.97550000  0.22260000  1
  C  C169  1  0.80960000  0.95540000  0.17190000  1
  C  C170  1  0.85480000  0.94250000  0.10200000  1
  C  C171  1  0.75570000  0.95060000  0.19980000  1
  C  C172  1  0.63260000  0.92190000  0.22150000  1
  C  C173  1  0.58810000  0.03770000  0.19380000  1
  C  C174  1  0.79540000  0.93660000  0.13170000  1
  C  C175  1  0.69070000  0.92340000  0.19030000  1
  C  C176  1  0.72940000  0.91360000  0.12180000  1
  C  C177  1  0.67570000  0.90750000  0.14990000  1
  C  C178  1  0.41640000  0.02450000  0.22260000  1
  C  C179  1  0.19040000  0.04460000  0.17190000  1
  C  C180  1  0.14520000  0.05750000  0.10200000  1
  C  C181  1  0.24430000  0.04940000  0.19980000  1
  C  C182  1  0.36740000  0.07810000  0.22150000  1
  C  C183  1  0.41190000  0.96230000  0.19380000  1
  C  C184  1  0.20460000  0.06340000  0.13170000  1
  C  C185  1  0.30930000  0.07660000  0.19030000  1
  C  C186  1  0.27060000  0.08640000  0.12180000  1
  C  C187  1  0.32430000  0.09250000  0.14990000  1
  C  C188  1  0.52450000  0.91640000  0.27740000  1
  C  C189  1  0.54460000  0.69040000  0.32810000  1
  C  C190  1  0.55750000  0.64520000  0.39800000  1
  C  C191  1  0.54940000  0.74430000  0.30020000  1
  C  C192  1  0.57810000  0.86740000  0.27850000  1
  C  C193  1  0.46230000  0.91190000  0.30620000  1
  C  C194  1  0.56340000  0.70460000  0.36830000  1
  C  C195  1  0.57660000  0.80930000  0.30970000  1
  C  C196  1  0.58640000  0.77060000  0.37820000  1
  C  C197  1  0.59250000  0.82430000  0.35010000  1
  C  C198  1  0.47550000  0.08360000  0.27740000  1
  C  C199  1  0.45540000  0.30960000  0.32810000  1
  C  C200  1  0.44250000  0.35480000  0.39800000  1
  C  C201  1  0.45060000  0.25570000  0.30020000  1
  C  C202  1  0.42190000  0.13260000  0.27850000  1
  C  C203  1  0.53770000  0.08810000  0.30620000  1
  C  C204  1  0.43660000  0.29540000  0.36830000  1
  C  C205  1  0.42340000  0.19070000  0.30970000  1
  C  C206  1  0.41360000  0.22940000  0.37820000  1
  C  C207  1  0.40750000  0.17570000  0.35010000  1
  C  C208  1  0.91640000  0.47550000  0.27740000  1
  C  C209  1  0.69040000  0.45540000  0.32810000  1
  C  C210  1  0.64520000  0.44250000  0.39800000  1
  C  C211  1  0.74430000  0.45060000  0.30020000  1
  C  C212  1  0.86740000  0.42190000  0.27850000  1
  C  C213  1  0.91190000  0.53770000  0.30620000  1
  C  C214  1  0.70460000  0.43660000  0.36830000  1
  C  C215  1  0.80930000  0.42340000  0.30970000  1
  C  C216  1  0.77060000  0.41360000  0.37820000  1
  C  C217  1  0.82430000  0.40750000  0.35010000  1
  C  C218  1  0.08360000  0.52450000  0.27740000  1
  C  C219  1  0.30960000  0.54460000  0.32810000  1
  C  C220  1  0.35480000  0.55750000  0.39800000  1
  C  C221  1  0.25570000  0.54940000  0.30020000  1
  C  C222  1  0.13260000  0.57810000  0.27850000  1
  C  C223  1  0.08810000  0.46230000  0.30620000  1
  C  C224  1  0.29540000  0.56340000  0.36830000  1
  C  C225  1  0.19070000  0.57660000  0.30970000  1
  C  C226  1  0.22940000  0.58640000  0.37820000  1
  C  C227  1  0.17570000  0.59250000  0.35010000  1
  C  C228  1  0.02450000  0.58360000  0.77740000  1
  C  C229  1  0.04460000  0.80960000  0.82810000  1
  C  C230  1  0.05750000  0.85480000  0.89800000  1
  C  C231  1  0.04940000  0.75570000  0.80020000  1
  C  C232  1  0.07810000  0.63260000  0.77850000  1
  C  C233  1  0.96230000  0.58810000  0.80620000  1
  C  C234  1  0.06340000  0.79540000  0.86830000  1
  C  C235  1  0.07660000  0.69070000  0.80970000  1
  C  C236  1  0.08640000  0.72940000  0.87820000  1
  C  C237  1  0.09250000  0.67570000  0.85010000  1
  C  C238  1  0.97550000  0.41640000  0.77740000  1
  C  C239  1  0.95540000  0.19040000  0.82810000  1
  C  C240  1  0.94250000  0.14520000  0.89800000  1
  C  C241  1  0.95060000  0.24430000  0.80020000  1
  C  C242  1  0.92190000  0.36740000  0.77850000  1
  C  C243  1  0.03770000  0.41190000  0.80620000  1
  C  C244  1  0.93660000  0.20460000  0.86830000  1
  C  C245  1  0.92340000  0.30930000  0.80970000  1
  C  C246  1  0.91360000  0.27060000  0.87820000  1
  C  C247  1  0.90750000  0.32430000  0.85010000  1
  C  C248  1  0.41640000  0.02450000  0.77740000  1
  C  C249  1  0.19040000  0.04460000  0.82810000  1
  C  C250  1  0.14520000  0.05750000  0.89800000  1
  C  C251  1  0.24430000  0.04940000  0.80020000  1
  C  C252  1  0.36740000  0.07810000  0.77850000  1
  C  C253  1  0.41190000  0.96230000  0.80620000  1
  C  C254  1  0.20460000  0.06340000  0.86830000  1
  C  C255  1  0.30930000  0.07660000  0.80970000  1
  C  C256  1  0.27060000  0.08640000  0.87820000  1
  C  C257  1  0.32430000  0.09250000  0.85010000  1
  C  C258  1  0.58360000  0.97550000  0.77740000  1
  C  C259  1  0.80960000  0.95540000  0.82810000  1
  C  C260  1  0.85480000  0.94250000  0.89800000  1
  C  C261  1  0.75570000  0.95060000  0.80020000  1
  C  C262  1  0.63260000  0.92190000  0.77850000  1
  C  C263  1  0.58810000  0.03770000  0.80620000  1
  C  C264  1  0.79540000  0.93660000  0.86830000  1
  C  C265  1  0.69070000  0.92340000  0.80970000  1
  C  C266  1  0.72940000  0.91360000  0.87820000  1
  C  C267  1  0.67570000  0.90750000  0.85010000  1
  C  C268  1  0.47550000  0.08360000  0.72260000  1
  C  C269  1  0.45540000  0.30960000  0.67190000  1
  C  C270  1  0.44250000  0.35480000  0.60200000  1
  C  C271  1  0.45060000  0.25570000  0.69980000  1
  C  C272  1  0.42190000  0.13260000  0.72150000  1
  C  C273  1  0.53770000  0.08810000  0.69380000  1
  C  C274  1  0.43660000  0.29540000  0.63170000  1
  C  C275  1  0.42340000  0.19070000  0.69030000  1
  C  C276  1  0.41360000  0.22940000  0.62180000  1
  C  C277  1  0.40750000  0.17570000  0.64990000  1
  C  C278  1  0.52450000  0.91640000  0.72260000  1
  C  C279  1  0.54460000  0.69040000  0.67190000  1
  C  C280  1  0.55750000  0.64520000  0.60200000  1
  C  C281  1  0.54940000  0.74430000  0.69980000  1
  C  C282  1  0.57810000  0.86740000  0.72150000  1
  C  C283  1  0.46230000  0.91190000  0.69380000  1
  C  C284  1  0.56340000  0.70460000  0.63170000  1
  C  C285  1  0.57660000  0.80930000  0.69030000  1
  C  C286  1  0.58640000  0.77060000  0.62180000  1
  C  C287  1  0.59250000  0.82430000  0.64990000  1
  C  C288  1  0.08360000  0.52450000  0.72260000  1
  C  C289  1  0.30960000  0.54460000  0.67190000  1
  C  C290  1  0.35480000  0.55750000  0.60200000  1
  C  C291  1  0.25570000  0.54940000  0.69980000  1
  C  C292  1  0.13260000  0.57810000  0.72150000  1
  C  C293  1  0.08810000  0.46230000  0.69380000  1
  C  C294  1  0.29540000  0.56340000  0.63170000  1
  C  C295  1  0.19070000  0.57660000  0.69030000  1
  C  C296  1  0.22940000  0.58640000  0.62180000  1
  C  C297  1  0.17570000  0.59250000  0.64990000  1
  C  C298  1  0.91640000  0.47550000  0.72260000  1
  C  C299  1  0.69040000  0.45540000  0.67190000  1
  C  C300  1  0.64520000  0.44250000  0.60200000  1
  C  C301  1  0.74430000  0.45060000  0.69980000  1
  C  C302  1  0.86740000  0.42190000  0.72150000  1
  C  C303  1  0.91190000  0.53770000  0.69380000  1
  C  C304  1  0.70460000  0.43660000  0.63170000  1
  C  C305  1  0.80930000  0.42340000  0.69030000  1
  C  C306  1  0.77060000  0.41360000  0.62180000  1
  C  C307  1  0.82430000  0.40750000  0.64990000  1
  C  C308  1  0.97245000  0.47245000  0.25000000  1
  C  C309  1  0.86820000  0.36820000  0.25000000  1
  C  C310  1  0.81390000  0.31390000  0.25000000  1
  C  C311  1  0.02755000  0.52755000  0.25000000  1
  C  C312  1  0.13180000  0.63180000  0.25000000  1
  C  C313  1  0.18610000  0.68610000  0.25000000  1
  C  C314  1  0.52755000  0.97245000  0.25000000  1
  C  C315  1  0.63180000  0.86820000  0.25000000  1
  C  C316  1  0.68610000  0.81390000  0.25000000  1
  C  C317  1  0.47245000  0.02755000  0.25000000  1
  C  C318  1  0.36820000  0.13180000  0.25000000  1
  C  C319  1  0.31390000  0.18610000  0.25000000  1
  C  C320  1  0.02755000  0.52755000  0.75000000  1
  C  C321  1  0.13180000  0.63180000  0.75000000  1
  C  C322  1  0.18610000  0.68610000  0.75000000  1
  C  C323  1  0.97245000  0.47245000  0.75000000  1
  C  C324  1  0.86820000  0.36820000  0.75000000  1
  C  C325  1  0.81390000  0.31390000  0.75000000  1
  C  C326  1  0.47245000  0.02755000  0.75000000  1
  C  C327  1  0.36820000  0.13180000  0.75000000  1
  C  C328  1  0.31390000  0.18610000  0.75000000  1
  C  C329  1  0.52755000  0.97245000  0.75000000  1
  C  C330  1  0.63180000  0.86820000  0.75000000  1
  C  C331  1  0.68610000  0.81390000  0.75000000  1
  O  O332  1  0.97370000  0.09270000  0.11090000  1
  O  O333  1  0.93530000  0.17030000  0.06240000  1
  O  O334  1  0.03870000  0.08450000  0.03600000  1
  O  O335  1  0.02630000  0.90730000  0.11090000  1
  O  O336  1  0.06470000  0.82970000  0.06240000  1
  O  O337  1  0.96130000  0.91550000  0.03600000  1
  O  O338  1  0.90730000  0.97370000  0.11090000  1
  O  O339  1  0.82970000  0.93530000  0.06240000  1
  O  O340  1  0.91550000  0.03870000  0.03600000  1
  O  O341  1  0.09270000  0.02630000  0.11090000  1
  O  O342  1  0.17030000  0.06470000  0.06240000  1
  O  O343  1  0.08450000  0.96130000  0.03600000  1
  O  O344  1  0.52630000  0.59270000  0.38910000  1
  O  O345  1  0.56470000  0.67030000  0.43760000  1
  O  O346  1  0.46130000  0.58450000  0.46400000  1
  O  O347  1  0.47370000  0.40730000  0.38910000  1
  O  O348  1  0.43530000  0.32970000  0.43760000  1
  O  O349  1  0.53870000  0.41550000  0.46400000  1
  O  O350  1  0.59270000  0.47370000  0.38910000  1
  O  O351  1  0.67030000  0.43530000  0.43760000  1
  O  O352  1  0.58450000  0.53870000  0.46400000  1
  O  O353  1  0.40730000  0.52630000  0.38910000  1
  O  O354  1  0.32970000  0.56470000  0.43760000  1
  O  O355  1  0.41550000  0.46130000  0.46400000  1
  O  O356  1  0.02630000  0.90730000  0.88910000  1
  O  O357  1  0.06470000  0.82970000  0.93760000  1
  O  O358  1  0.96130000  0.91550000  0.96400000  1
  O  O359  1  0.97370000  0.09270000  0.88910000  1
  O  O360  1  0.93530000  0.17030000  0.93760000  1
  O  O361  1  0.03870000  0.08450000  0.96400000  1
  O  O362  1  0.09270000  0.02630000  0.88910000  1
  O  O363  1  0.17030000  0.06470000  0.93760000  1
  O  O364  1  0.08450000  0.96130000  0.96400000  1
  O  O365  1  0.90730000  0.97370000  0.88910000  1
  O  O366  1  0.82970000  0.93530000  0.93760000  1
  O  O367  1  0.91550000  0.03870000  0.96400000  1
  O  O368  1  0.47370000  0.40730000  0.61090000  1
  O  O369  1  0.43530000  0.32970000  0.56240000  1
  O  O370  1  0.53870000  0.41550000  0.53600000  1
  O  O371  1  0.52630000  0.59270000  0.61090000  1
  O  O372  1  0.56470000  0.67030000  0.56240000  1
  O  O373  1  0.46130000  0.58450000  0.53600000  1
  O  O374  1  0.40730000  0.52630000  0.61090000  1
  O  O375  1  0.32970000  0.56470000  0.56240000  1
  O  O376  1  0.41550000  0.46130000  0.53600000  1
  O  O377  1  0.59270000  0.47370000  0.61090000  1
  O  O378  1  0.67030000  0.43530000  0.56240000  1
  O  O379  1  0.58450000  0.53870000  0.53600000  1
