# generated using pymatgen
data_Zr3H34(C23O6)2
_symmetry_space_group_name_H-M   'P 1'
_cell_length_a   19.07650000
_cell_length_b   19.07650000
_cell_length_c   33.06100000
_cell_angle_alpha   90.00000000
_cell_angle_beta   90.00000000
_cell_angle_gamma   90.00000000
_symmetry_Int_Tables_number   1
_chemical_formula_structural   Zr3H34(C23O6)2
_chemical_formula_sum   'Zr12 H136 C184 O48'
_cell_volume   12031.32280824
_cell_formula_units_Z   4
loop_
 _symmetry_equiv_pos_site_id
 _symmetry_equiv_pos_as_xyz
  1  'x, y, z'
loop_
 _atom_site_type_symbol
 _atom_site_label
 _atom_site_symmetry_multiplicity
 _atom_site_fract_x
 _atom_site_fract_y
 _atom_site_fract_z
 _atom_site_occupancy
  Zr  Zr0  1  0.12310000  0.04570000  0.00000000  1
  Zr  Zr1  1  0.87690000  0.95430000  0.00000000  1
  Zr  Zr2  1  0.95430000  0.12310000  0.00000000  1
  Zr  Zr3  1  0.04570000  0.87690000  0.00000000  1
  Zr  Zr4  1  0.37690000  0.54570000  0.50000000  1
  Zr  Zr5  1  0.62310000  0.45430000  0.50000000  1
  Zr  Zr6  1  0.54570000  0.62310000  0.50000000  1
  Zr  Zr7  1  0.45430000  0.37690000  0.50000000  1
  Zr  Zr8  1  0.00000000  0.00000000  0.07339000  1
  Zr  Zr9  1  0.50000000  0.50000000  0.42661000  1
  Zr  Zr10  1  0.00000000  0.00000000  0.92661000  1
  Zr  Zr11  1  0.50000000  0.50000000  0.57339000  1
  H  H12  1  0.98040000  0.15130000  0.17410000  1
  H  H13  1  0.97140000  0.22900000  0.22950000  1
  H  H14  1  0.06020000  0.45220000  0.19460000  1
  H  H15  1  0.05170000  0.37070000  0.19100000  1
  H  H16  1  0.00560000  0.42050000  0.16420000  1
  H  H17  1  0.89600000  0.28640000  0.09140000  1
  H  H18  1  0.88490000  0.36250000  0.14740000  1
  H  H19  1  0.01960000  0.84870000  0.17410000  1
  H  H20  1  0.02860000  0.77100000  0.22950000  1
  H  H21  1  0.93980000  0.54780000  0.19460000  1
  H  H22  1  0.94830000  0.62930000  0.19100000  1
  H  H23  1  0.99440000  0.57950000  0.16420000  1
  H  H24  1  0.10400000  0.71360000  0.09140000  1
  H  H25  1  0.11510000  0.63750000  0.14740000  1
  H  H26  1  0.84870000  0.98040000  0.17410000  1
  H  H27  1  0.77100000  0.97140000  0.22950000  1
  H  H28  1  0.54780000  0.06020000  0.19460000  1
  H  H29  1  0.62930000  0.05170000  0.19100000  1
  H  H30  1  0.57950000  0.00560000  0.16420000  1
  H  H31  1  0.71360000  0.89600000  0.09140000  1
  H  H32  1  0.63750000  0.88490000  0.14740000  1
  H  H33  1  0.72090000  0.82000000  0.22830000  1
  H  H34  1  0.71320000  0.81230000  0.27530000  1
  H  H35  1  0.66720000  0.76630000  0.24640000  1
  H  H36  1  0.15130000  0.01960000  0.17410000  1
  H  H37  1  0.22900000  0.02860000  0.22950000  1
  H  H38  1  0.45220000  0.93980000  0.19460000  1
  H  H39  1  0.37070000  0.94830000  0.19100000  1
  H  H40  1  0.42050000  0.99440000  0.16420000  1
  H  H41  1  0.28640000  0.10400000  0.09140000  1
  H  H42  1  0.36250000  0.11510000  0.14740000  1
  H  H43  1  0.27910000  0.18000000  0.22830000  1
  H  H44  1  0.28680000  0.18770000  0.27530000  1
  H  H45  1  0.33280000  0.23370000  0.24640000  1
  H  H46  1  0.51960000  0.65130000  0.32590000  1
  H  H47  1  0.52860000  0.72900000  0.27050000  1
  H  H48  1  0.43980000  0.95220000  0.30540000  1
  H  H49  1  0.44830000  0.87070000  0.30900000  1
  H  H50  1  0.49440000  0.92050000  0.33580000  1
  H  H51  1  0.60400000  0.78640000  0.40860000  1
  H  H52  1  0.61510000  0.86250000  0.35260000  1
  H  H53  1  0.48040000  0.34870000  0.32590000  1
  H  H54  1  0.47140000  0.27100000  0.27050000  1
  H  H55  1  0.56020000  0.04780000  0.30540000  1
  H  H56  1  0.55170000  0.12930000  0.30900000  1
  H  H57  1  0.50560000  0.07950000  0.33580000  1
  H  H58  1  0.39600000  0.21360000  0.40860000  1
  H  H59  1  0.38490000  0.13750000  0.35260000  1
  H  H60  1  0.65130000  0.48040000  0.32590000  1
  H  H61  1  0.72900000  0.47140000  0.27050000  1
  H  H62  1  0.95220000  0.56020000  0.30540000  1
  H  H63  1  0.87070000  0.55170000  0.30900000  1
  H  H64  1  0.92050000  0.50560000  0.33580000  1
  H  H65  1  0.78640000  0.39600000  0.40860000  1
  H  H66  1  0.86250000  0.38490000  0.35260000  1
  H  H67  1  0.77910000  0.32000000  0.27170000  1
  H  H68  1  0.78680000  0.31230000  0.22470000  1
  H  H69  1  0.83280000  0.26630000  0.25360000  1
  H  H70  1  0.34870000  0.51960000  0.32590000  1
  H  H71  1  0.27100000  0.52860000  0.27050000  1
  H  H72  1  0.04780000  0.43980000  0.30540000  1
  H  H73  1  0.12930000  0.44830000  0.30900000  1
  H  H74  1  0.07950000  0.49440000  0.33580000  1
  H  H75  1  0.21360000  0.60400000  0.40860000  1
  H  H76  1  0.13750000  0.61510000  0.35260000  1
  H  H77  1  0.22090000  0.68000000  0.27170000  1
  H  H78  1  0.21320000  0.68770000  0.22470000  1
  H  H79  1  0.16720000  0.73370000  0.25360000  1
  H  H80  1  0.01960000  0.84870000  0.82590000  1
  H  H81  1  0.02860000  0.77100000  0.77050000  1
  H  H82  1  0.93980000  0.54780000  0.80540000  1
  H  H83  1  0.94830000  0.62930000  0.80900000  1
  H  H84  1  0.99440000  0.57950000  0.83580000  1
  H  H85  1  0.10400000  0.71360000  0.90860000  1
  H  H86  1  0.11510000  0.63750000  0.85260000  1
  H  H87  1  0.18000000  0.72090000  0.77170000  1
  H  H88  1  0.18770000  0.71320000  0.72470000  1
  H  H89  1  0.23370000  0.66720000  0.75360000  1
  H  H90  1  0.98040000  0.15130000  0.82590000  1
  H  H91  1  0.97140000  0.22900000  0.77050000  1
  H  H92  1  0.06020000  0.45220000  0.80540000  1
  H  H93  1  0.05170000  0.37070000  0.80900000  1
  H  H94  1  0.00560000  0.42050000  0.83580000  1
  H  H95  1  0.89600000  0.28640000  0.90860000  1
  H  H96  1  0.88490000  0.36250000  0.85260000  1
  H  H97  1  0.15130000  0.01960000  0.82590000  1
  H  H98  1  0.22900000  0.02860000  0.77050000  1
  H  H99  1  0.45220000  0.93980000  0.80540000  1
  H  H100  1  0.37070000  0.94830000  0.80900000  1
  H  H101  1  0.42050000  0.99440000  0.83580000  1
  H  H102  1  0.28640000  0.10400000  0.90860000  1
  H  H103  1  0.36250000  0.11510000  0.85260000  1
  H  H104  1  0.27910000  0.18000000  0.77170000  1
  H  H105  1  0.28680000  0.18770000  0.72470000  1
  H  H106  1  0.33280000  0.23370000  0.75360000  1
  H  H107  1  0.84870000  0.98040000  0.82590000  1
  H  H108  1  0.77100000  0.97140000  0.77050000  1
  H  H109  1  0.54780000  0.06020000  0.80540000  1
  H  H110  1  0.62930000  0.05170000  0.80900000  1
  H  H111  1  0.57950000  0.00560000  0.83580000  1
  H  H112  1  0.71360000  0.89600000  0.90860000  1
  H  H113  1  0.63750000  0.88490000  0.85260000  1
  H  H114  1  0.48040000  0.34870000  0.67410000  1
  H  H115  1  0.47140000  0.27100000  0.72950000  1
  H  H116  1  0.56020000  0.04780000  0.69460000  1
  H  H117  1  0.55170000  0.12930000  0.69100000  1
  H  H118  1  0.50560000  0.07950000  0.66420000  1
  H  H119  1  0.39600000  0.21360000  0.59140000  1
  H  H120  1  0.38490000  0.13750000  0.64740000  1
  H  H121  1  0.51960000  0.65130000  0.67410000  1
  H  H122  1  0.52860000  0.72900000  0.72950000  1
  H  H123  1  0.43980000  0.95220000  0.69460000  1
  H  H124  1  0.44830000  0.87070000  0.69100000  1
  H  H125  1  0.49440000  0.92050000  0.66420000  1
  H  H126  1  0.60400000  0.78640000  0.59140000  1
  H  H127  1  0.61510000  0.86250000  0.64740000  1
  H  H128  1  0.68000000  0.77910000  0.72830000  1
  H  H129  1  0.68770000  0.78680000  0.77530000  1
  H  H130  1  0.73370000  0.83280000  0.74640000  1
  H  H131  1  0.34870000  0.51960000  0.67410000  1
  H  H132  1  0.27100000  0.52860000  0.72950000  1
  H  H133  1  0.04780000  0.43980000  0.69460000  1
  H  H134  1  0.12930000  0.44830000  0.69100000  1
  H  H135  1  0.07950000  0.49440000  0.66420000  1
  H  H136  1  0.21360000  0.60400000  0.59140000  1
  H  H137  1  0.13750000  0.61510000  0.64740000  1
  H  H138  1  0.65130000  0.48040000  0.67410000  1
  H  H139  1  0.72900000  0.47140000  0.72950000  1
  H  H140  1  0.95220000  0.56020000  0.69460000  1
  H  H141  1  0.87070000  0.55170000  0.69100000  1
  H  H142  1  0.92050000  0.50560000  0.66420000  1
  H  H143  1  0.78640000  0.39600000  0.59140000  1
  H  H144  1  0.86250000  0.38490000  0.64740000  1
  H  H145  1  0.77910000  0.32000000  0.72830000  1
  H  H146  1  0.78680000  0.31230000  0.77530000  1
  H  H147  1  0.83280000  0.26630000  0.74640000  1
  C  C148  1  0.97200000  0.41620000  0.22280000  1
  C  C149  1  0.96080000  0.19530000  0.17000000  1
  C  C150  1  0.94230000  0.15490000  0.09930000  1
  C  C151  1  0.95720000  0.24010000  0.20340000  1
  C  C152  1  0.92040000  0.36510000  0.22070000  1
  C  C153  1  0.02740000  0.41470000  0.19020000  1
  C  C154  1  0.93720000  0.21150000  0.13100000  1
  C  C155  1  0.92850000  0.30480000  0.19110000  1
  C  C156  1  0.90930000  0.27520000  0.11770000  1
  C  C157  1  0.90540000  0.31890000  0.15150000  1
  C  C158  1  0.02800000  0.58380000  0.22280000  1
  C  C159  1  0.03920000  0.80470000  0.17000000  1
  C  C160  1  0.05770000  0.84510000  0.09930000  1
  C  C161  1  0.04280000  0.75990000  0.20340000  1
  C  C162  1  0.07960000  0.63490000  0.22070000  1
  C  C163  1  0.97260000  0.58530000  0.19020000  1
  C  C164  1  0.06280000  0.78850000  0.13100000  1
  C  C165  1  0.07150000  0.69520000  0.19110000  1
  C  C166  1  0.09070000  0.72480000  0.11770000  1
  C  C167  1  0.09460000  0.68110000  0.15150000  1
  C  C168  1  0.58380000  0.97200000  0.22280000  1
  C  C169  1  0.80470000  0.96080000  0.17000000  1
  C  C170  1  0.84510000  0.94230000  0.09930000  1
  C  C171  1  0.75990000  0.95720000  0.20340000  1
  C  C172  1  0.63490000  0.92040000  0.22070000  1
  C  C173  1  0.58530000  0.02740000  0.19020000  1
  C  C174  1  0.78850000  0.93720000  0.13100000  1
  C  C175  1  0.69520000  0.92850000  0.19110000  1
  C  C176  1  0.72480000  0.90930000  0.11770000  1
  C  C177  1  0.68110000  0.90540000  0.15150000  1
  C  C178  1  0.41620000  0.02800000  0.22280000  1
  C  C179  1  0.19530000  0.03920000  0.17000000  1
  C  C180  1  0.15490000  0.05770000  0.09930000  1
  C  C181  1  0.24010000  0.04280000  0.20340000  1
  C  C182  1  0.36510000  0.07960000  0.22070000  1
  C  C183  1  0.41470000  0.97260000  0.19020000  1
  C  C184  1  0.21150000  0.06280000  0.13100000  1
  C  C185  1  0.30480000  0.07150000  0.19110000  1
  C  C186  1  0.27520000  0.09070000  0.11770000  1
  C  C187  1  0.31890000  0.09460000  0.15150000  1
  C  C188  1  0.52800000  0.91620000  0.27720000  1
  C  C189  1  0.53920000  0.69530000  0.33000000  1
  C  C190  1  0.55770000  0.65490000  0.40070000  1
  C  C191  1  0.54280000  0.74010000  0.29660000  1
  C  C192  1  0.57960000  0.86510000  0.27930000  1
  C  C193  1  0.47260000  0.91470000  0.30980000  1
  C  C194  1  0.56280000  0.71150000  0.36900000  1
  C  C195  1  0.57150000  0.80480000  0.30890000  1
  C  C196  1  0.59070000  0.77520000  0.38230000  1
  C  C197  1  0.59460000  0.81890000  0.34850000  1
  C  C198  1  0.47200000  0.08380000  0.27720000  1
  C  C199  1  0.46080000  0.30470000  0.33000000  1
  C  C200  1  0.44230000  0.34510000  0.40070000  1
  C  C201  1  0.45720000  0.25990000  0.29660000  1
  C  C202  1  0.42040000  0.13490000  0.27930000  1
  C  C203  1  0.52740000  0.08530000  0.30980000  1
  C  C204  1  0.43720000  0.28850000  0.36900000  1
  C  C205  1  0.42850000  0.19520000  0.30890000  1
  C  C206  1  0.40930000  0.22480000  0.38230000  1
  C  C207  1  0.40540000  0.18110000  0.34850000  1
  C  C208  1  0.91620000  0.47200000  0.27720000  1
  C  C209  1  0.69530000  0.46080000  0.33000000  1
  C  C210  1  0.65490000  0.44230000  0.40070000  1
  C  C211  1  0.74010000  0.45720000  0.29660000  1
  C  C212  1  0.86510000  0.42040000  0.27930000  1
  C  C213  1  0.91470000  0.52740000  0.30980000  1
  C  C214  1  0.71150000  0.43720000  0.36900000  1
  C  C215  1  0.80480000  0.42850000  0.30890000  1
  C  C216  1  0.77520000  0.40930000  0.38230000  1
  C  C217  1  0.81890000  0.40540000  0.34850000  1
  C  C218  1  0.08380000  0.52800000  0.27720000  1
  C  C219  1  0.30470000  0.53920000  0.33000000  1
  C  C220  1  0.34510000  0.55770000  0.40070000  1
  C  C221  1  0.25990000  0.54280000  0.29660000  1
  C  C222  1  0.13490000  0.57960000  0.27930000  1
  C  C223  1  0.08530000  0.47260000  0.30980000  1
  C  C224  1  0.28850000  0.56280000  0.36900000  1
  C  C225  1  0.19520000  0.57150000  0.30890000  1
  C  C226  1  0.22480000  0.59070000  0.38230000  1
  C  C227  1  0.18110000  0.59460000  0.34850000  1
  C  C228  1  0.02800000  0.58380000  0.77720000  1
  C  C229  1  0.03920000  0.80470000  0.83000000  1
  C  C230  1  0.05770000  0.84510000  0.90070000  1
  C  C231  1  0.04280000  0.75990000  0.79660000  1
  C  C232  1  0.07960000  0.63490000  0.77930000  1
  C  C233  1  0.97260000  0.58530000  0.80980000  1
  C  C234  1  0.06280000  0.78850000  0.86900000  1
  C  C235  1  0.07150000  0.69520000  0.80890000  1
  C  C236  1  0.09070000  0.72480000  0.88230000  1
  C  C237  1  0.09460000  0.68110000  0.84850000  1
  C  C238  1  0.97200000  0.41620000  0.77720000  1
  C  C239  1  0.96080000  0.19530000  0.83000000  1
  C  C240  1  0.94230000  0.15490000  0.90070000  1
  C  C241  1  0.95720000  0.24010000  0.79660000  1
  C  C242  1  0.92040000  0.36510000  0.77930000  1
  C  C243  1  0.02740000  0.41470000  0.80980000  1
  C  C244  1  0.93720000  0.21150000  0.86900000  1
  C  C245  1  0.92850000  0.30480000  0.80890000  1
  C  C246  1  0.90930000  0.27520000  0.88230000  1
  C  C247  1  0.90540000  0.31890000  0.84850000  1
  C  C248  1  0.41620000  0.02800000  0.77720000  1
  C  C249  1  0.19530000  0.03920000  0.83000000  1
  C  C250  1  0.15490000  0.05770000  0.90070000  1
  C  C251  1  0.24010000  0.04280000  0.79660000  1
  C  C252  1  0.36510000  0.07960000  0.77930000  1
  C  C253  1  0.41470000  0.97260000  0.80980000  1
  C  C254  1  0.21150000  0.06280000  0.86900000  1
  C  C255  1  0.30480000  0.07150000  0.80890000  1
  C  C256  1  0.27520000  0.09070000  0.88230000  1
  C  C257  1  0.31890000  0.09460000  0.84850000  1
  C  C258  1  0.58380000  0.97200000  0.77720000  1
  C  C259  1  0.80470000  0.96080000  0.83000000  1
  C  C260  1  0.84510000  0.94230000  0.90070000  1
  C  C261  1  0.75990000  0.95720000  0.79660000  1
  C  C262  1  0.63490000  0.92040000  0.77930000  1
  C  C263  1  0.58530000  0.02740000  0.80980000  1
  C  C264  1  0.78850000  0.93720000  0.86900000  1
  C  C265  1  0.69520000  0.92850000  0.80890000  1
  C  C266  1  0.72480000  0.90930000  0.88230000  1
  C  C267  1  0.68110000  0.90540000  0.84850000  1
  C  C268  1  0.47200000  0.08380000  0.72280000  1
  C  C269  1  0.46080000  0.30470000  0.67000000  1
  C  C270  1  0.44230000  0.34510000  0.59930000  1
  C  C271  1  0.45720000  0.25990000  0.70340000  1
  C  C272  1  0.42040000  0.13490000  0.72070000  1
  C  C273  1  0.52740000  0.08530000  0.69020000  1
  C  C274  1  0.43720000  0.28850000  0.63100000  1
  C  C275  1  0.42850000  0.19520000  0.69110000  1
  C  C276  1  0.40930000  0.22480000  0.61770000  1
  C  C277  1  0.40540000  0.18110000  0.65150000  1
  C  C278  1  0.52800000  0.91620000  0.72280000  1
  C  C279  1  0.53920000  0.69530000  0.67000000  1
  C  C280  1  0.55770000  0.65490000  0.59930000  1
  C  C281  1  0.54280000  0.74010000  0.70340000  1
  C  C282  1  0.57960000  0.86510000  0.72070000  1
  C  C283  1  0.47260000  0.91470000  0.69020000  1
  C  C284  1  0.56280000  0.71150000  0.63100000  1
  C  C285  1  0.57150000  0.80480000  0.69110000  1
  C  C286  1  0.59070000  0.77520000  0.61770000  1
  C  C287  1  0.59460000  0.81890000  0.65150000  1
  C  C288  1  0.08380000  0.52800000  0.72280000  1
  C  C289  1  0.30470000  0.53920000  0.67000000  1
  C  C290  1  0.34510000  0.55770000  0.59930000  1
  C  C291  1  0.25990000  0.54280000  0.70340000  1
  C  C292  1  0.13490000  0.57960000  0.72070000  1
  C  C293  1  0.08530000  0.47260000  0.69020000  1
  C  C294  1  0.28850000  0.56280000  0.63100000  1
  C  C295  1  0.19520000  0.57150000  0.69110000  1
  C  C296  1  0.22480000  0.59070000  0.61770000  1
  C  C297  1  0.18110000  0.59460000  0.65150000  1
  C  C298  1  0.91620000  0.47200000  0.72280000  1
  C  C299  1  0.69530000  0.46080000  0.67000000  1
  C  C300  1  0.65490000  0.44230000  0.59930000  1
  C  C301  1  0.74010000  0.45720000  0.70340000  1
  C  C302  1  0.86510000  0.42040000  0.72070000  1
  C  C303  1  0.91470000  0.52740000  0.69020000  1
  C  C304  1  0.71150000  0.43720000  0.63100000  1
  C  C305  1  0.80480000  0.42850000  0.69110000  1
  C  C306  1  0.77520000  0.40930000  0.61770000  1
  C  C307  1  0.81890000  0.40540000  0.65150000  1
  C  C308  1  0.97223000  0.47223000  0.25000000  1
  C  C309  1  0.86720000  0.36720000  0.25000000  1
  C  C310  1  0.81140000  0.31140000  0.25000000  1
  C  C311  1  0.02777000  0.52777000  0.25000000  1
  C  C312  1  0.13280000  0.63280000  0.25000000  1
  C  C313  1  0.18860000  0.68860000  0.25000000  1
  C  C314  1  0.52777000  0.97223000  0.25000000  1
  C  C315  1  0.63280000  0.86720000  0.25000000  1
  C  C316  1  0.68860000  0.81140000  0.25000000  1
  C  C317  1  0.47223000  0.02777000  0.25000000  1
  C  C318  1  0.36720000  0.13280000  0.25000000  1
  C  C319  1  0.31140000  0.18860000  0.25000000  1
  C  C320  1  0.02777000  0.52777000  0.75000000  1
  C  C321  1  0.13280000  0.63280000  0.75000000  1
  C  C322  1  0.18860000  0.68860000  0.75000000  1
  C  C323  1  0.97223000  0.47223000  0.75000000  1
  C  C324  1  0.86720000  0.36720000  0.75000000  1
  C  C325  1  0.81140000  0.31140000  0.75000000  1
  C  C326  1  0.47223000  0.02777000  0.75000000  1
  C  C327  1  0.36720000  0.13280000  0.75000000  1
  C  C328  1  0.31140000  0.18860000  0.75000000  1
  C  C329  1  0.52777000  0.97223000  0.75000000  1
  C  C330  1  0.63280000  0.86720000  0.75000000  1
  C  C331  1  0.68860000  0.81140000  0.75000000  1
  O  O332  1  0.97170000  0.09300000  0.10820000  1
  O  O333  1  0.93690000  0.17350000  0.06020000  1
  O  O334  1  0.03830000  0.08600000  0.03630000  1
  O  O335  1  0.02830000  0.90700000  0.10820000  1
  O  O336  1  0.06310000  0.82650000  0.06020000  1
  O  O337  1  0.96170000  0.91400000  0.03630000  1
  O  O338  1  0.90700000  0.97170000  0.10820000  1
  O  O339  1  0.82650000  0.93690000  0.06020000  1
  O  O340  1  0.91400000  0.03830000  0.03630000  1
  O  O341  1  0.09300000  0.02830000  0.10820000  1
  O  O342  1  0.17350000  0.06310000  0.06020000  1
  O  O343  1  0.08600000  0.96170000  0.03630000  1
  O  O344  1  0.52830000  0.59300000  0.39180000  1
  O  O345  1  0.56310000  0.67350000  0.43980000  1
  O  O346  1  0.46170000  0.58600000  0.46370000  1
  O  O347  1  0.47170000  0.40700000  0.39180000  1
  O  O348  1  0.43690000  0.32650000  0.43980000  1
  O  O349  1  0.53830000  0.41400000  0.46370000  1
  O  O350  1  0.59300000  0.47170000  0.39180000  1
  O  O351  1  0.67350000  0.43690000  0.43980000  1
  O  O352  1  0.58600000  0.53830000  0.46370000  1
  O  O353  1  0.40700000  0.52830000  0.39180000  1
  O  O354  1  0.32650000  0.56310000  0.43980000  1
  O  O355  1  0.41400000  0.46170000  0.46370000  1
  O  O356  1  0.02830000  0.90700000  0.89180000  1
  O  O357  1  0.06310000  0.82650000  0.93980000  1
  O  O358  1  0.96170000  0.91400000  0.96370000  1
  O  O359  1  0.97170000  0.09300000  0.89180000  1
  O  O360  1  0.93690000  0.17350000  0.93980000  1
  O  O361  1  0.03830000  0.08600000  0.96370000  1
  O  O362  1  0.09300000  0.02830000  0.89180000  1
  O  O363  1  0.17350000  0.06310000  0.93980000  1
  O  O364  1  0.08600000  0.96170000  0.96370000  1
  O  O365  1  0.90700000  0.97170000  0.89180000  1
  O  O366  1  0.82650000  0.93690000  0.93980000  1
  O  O367  1  0.91400000  0.03830000  0.96370000  1
  O  O368  1  0.47170000  0.40700000  0.60820000  1
  O  O369  1  0.43690000  0.32650000  0.56020000  1
  O  O370  1  0.53830000  0.41400000  0.53630000  1
  O  O371  1  0.52830000  0.59300000  0.60820000  1
  O  O372  1  0.56310000  0.67350000  0.56020000  1
  O  O373  1  0.46170000  0.58600000  0.53630000  1
  O  O374  1  0.40700000  0.52830000  0.60820000  1
  O  O375  1  0.32650000  0.56310000  0.56020000  1
  O  O376  1  0.41400000  0.46170000  0.53630000  1
  O  O377  1  0.59300000  0.47170000  0.60820000  1
  O  O378  1  0.67350000  0.43690000  0.56020000  1
  O  O379  1  0.58600000  0.53830000  0.53630000  1
