# generated using pymatgen
data_Zr3H34(C23O6)2
_symmetry_space_group_name_H-M   'P 1'
_cell_length_a   19.13260000
_cell_length_b   19.13260000
_cell_length_c   33.03900000
_cell_angle_alpha   90.00000000
_cell_angle_beta   90.00000000
_cell_angle_gamma   90.00000000
_symmetry_Int_Tables_number   1
_chemical_formula_structural   Zr3H34(C23O6)2
_chemical_formula_sum   'Zr12 H136 C184 O48'
_cell_volume   12094.13683001
_cell_formula_units_Z   4
loop_
 _symmetry_equiv_pos_site_id
 _symmetry_equiv_pos_as_xyz
  1  'x, y, z'
loop_
 _atom_site_type_symbol
 _atom_site_label
 _atom_site_symmetry_multiplicity
 _atom_site_fract_x
 _atom_site_fract_y
 _atom_site_fract_z
 _atom_site_occupancy
  Zr  Zr0  1  0.45410000  0.37730000  0.50000000  1
  Zr  Zr1  1  0.54590000  0.62270000  0.50000000  1
  Zr  Zr2  1  0.62270000  0.45410000  0.50000000  1
  Zr  Zr3  1  0.37730000  0.54590000  0.50000000  1
  Zr  Zr4  1  0.04590000  0.87730000  0.00000000  1
  Zr  Zr5  1  0.95410000  0.12270000  0.00000000  1
  Zr  Zr6  1  0.87730000  0.95410000  0.00000000  1
  Zr  Zr7  1  0.12270000  0.04590000  0.00000000  1
  Zr  Zr8  1  0.50000000  0.50000000  0.42610000  1
  Zr  Zr9  1  0.00000000  0.00000000  0.07390000  1
  Zr  Zr10  1  0.50000000  0.50000000  0.57390000  1
  Zr  Zr11  1  0.00000000  0.00000000  0.92610000  1
  H  H12  1  0.34740000  0.52480000  0.32690000  1
  H  H13  1  0.27310000  0.53350000  0.27130000  1
  H  H14  1  0.07280000  0.48530000  0.33380000  1
  H  H15  1  0.13500000  0.45080000  0.31030000  1
  H  H16  1  0.05780000  0.42970000  0.30010000  1
  H  H17  1  0.21190000  0.60320000  0.40820000  1
  H  H18  1  0.13680000  0.61390000  0.35310000  1
  H  H19  1  0.65260000  0.47520000  0.32690000  1
  H  H20  1  0.72690000  0.46650000  0.27130000  1
  H  H21  1  0.92720000  0.51470000  0.33380000  1
  H  H22  1  0.86500000  0.54920000  0.31030000  1
  H  H23  1  0.94220000  0.57030000  0.30010000  1
  H  H24  1  0.78810000  0.39680000  0.40820000  1
  H  H25  1  0.86320000  0.38610000  0.35310000  1
  H  H26  1  0.47520000  0.34740000  0.32690000  1
  H  H27  1  0.46650000  0.27310000  0.27130000  1
  H  H28  1  0.51470000  0.07280000  0.33380000  1
  H  H29  1  0.54920000  0.13500000  0.31030000  1
  H  H30  1  0.57030000  0.05780000  0.30010000  1
  H  H31  1  0.39680000  0.21190000  0.40820000  1
  H  H32  1  0.38610000  0.13680000  0.35310000  1
  H  H33  1  0.32140000  0.21930000  0.27170000  1
  H  H34  1  0.26790000  0.16580000  0.25350000  1
  H  H35  1  0.31390000  0.21180000  0.22470000  1
  H  H36  1  0.52480000  0.65260000  0.32690000  1
  H  H37  1  0.53350000  0.72690000  0.27130000  1
  H  H38  1  0.48530000  0.92720000  0.33380000  1
  H  H39  1  0.45080000  0.86500000  0.31030000  1
  H  H40  1  0.42970000  0.94220000  0.30010000  1
  H  H41  1  0.60320000  0.78810000  0.40820000  1
  H  H42  1  0.61390000  0.86320000  0.35310000  1
  H  H43  1  0.15260000  0.02480000  0.17310000  1
  H  H44  1  0.22690000  0.03350000  0.22870000  1
  H  H45  1  0.42720000  0.98530000  0.16620000  1
  H  H46  1  0.36500000  0.95080000  0.18970000  1
  H  H47  1  0.44220000  0.92970000  0.19990000  1
  H  H48  1  0.28810000  0.10320000  0.09180000  1
  H  H49  1  0.36320000  0.11390000  0.14690000  1
  H  H50  1  0.84740000  0.97520000  0.17310000  1
  H  H51  1  0.77310000  0.96650000  0.22870000  1
  H  H52  1  0.57280000  0.01470000  0.16620000  1
  H  H53  1  0.63500000  0.04920000  0.18970000  1
  H  H54  1  0.55780000  0.07030000  0.19990000  1
  H  H55  1  0.71190000  0.89680000  0.09180000  1
  H  H56  1  0.63680000  0.88610000  0.14690000  1
  H  H57  1  0.71930000  0.82140000  0.22830000  1
  H  H58  1  0.66580000  0.76790000  0.24650000  1
  H  H59  1  0.71180000  0.81390000  0.27530000  1
  H  H60  1  0.02480000  0.84740000  0.17310000  1
  H  H61  1  0.03350000  0.77310000  0.22870000  1
  H  H62  1  0.98530000  0.57280000  0.16620000  1
  H  H63  1  0.95080000  0.63500000  0.18970000  1
  H  H64  1  0.92970000  0.55780000  0.19990000  1
  H  H65  1  0.10320000  0.71190000  0.09180000  1
  H  H66  1  0.11390000  0.63680000  0.14690000  1
  H  H67  1  0.17860000  0.71930000  0.22830000  1
  H  H68  1  0.23210000  0.66580000  0.24650000  1
  H  H69  1  0.18610000  0.71180000  0.27530000  1
  H  H70  1  0.97520000  0.15260000  0.17310000  1
  H  H71  1  0.96650000  0.22690000  0.22870000  1
  H  H72  1  0.01470000  0.42720000  0.16620000  1
  H  H73  1  0.04920000  0.36500000  0.18970000  1
  H  H74  1  0.07030000  0.44220000  0.19990000  1
  H  H75  1  0.89680000  0.28810000  0.09180000  1
  H  H76  1  0.88610000  0.36320000  0.14690000  1
  H  H77  1  0.82140000  0.28070000  0.22830000  1
  H  H78  1  0.76790000  0.33420000  0.24650000  1
  H  H79  1  0.81390000  0.28820000  0.27530000  1
  H  H80  1  0.65260000  0.47520000  0.67310000  1
  H  H81  1  0.72690000  0.46650000  0.72870000  1
  H  H82  1  0.92720000  0.51470000  0.66620000  1
  H  H83  1  0.86500000  0.54920000  0.68970000  1
  H  H84  1  0.94220000  0.57030000  0.69990000  1
  H  H85  1  0.78810000  0.39680000  0.59180000  1
  H  H86  1  0.86320000  0.38610000  0.64690000  1
  H  H87  1  0.34740000  0.52480000  0.67310000  1
  H  H88  1  0.27310000  0.53350000  0.72870000  1
  H  H89  1  0.07280000  0.48530000  0.66620000  1
  H  H90  1  0.13500000  0.45080000  0.68970000  1
  H  H91  1  0.05780000  0.42970000  0.69990000  1
  H  H92  1  0.21190000  0.60320000  0.59180000  1
  H  H93  1  0.13680000  0.61390000  0.64690000  1
  H  H94  1  0.52480000  0.65260000  0.67310000  1
  H  H95  1  0.53350000  0.72690000  0.72870000  1
  H  H96  1  0.48530000  0.92720000  0.66620000  1
  H  H97  1  0.45080000  0.86500000  0.68970000  1
  H  H98  1  0.42970000  0.94220000  0.69990000  1
  H  H99  1  0.60320000  0.78810000  0.59180000  1
  H  H100  1  0.61390000  0.86320000  0.64690000  1
  H  H101  1  0.67860000  0.78070000  0.72830000  1
  H  H102  1  0.73210000  0.83420000  0.74650000  1
  H  H103  1  0.68610000  0.78820000  0.77530000  1
  H  H104  1  0.47520000  0.34740000  0.67310000  1
  H  H105  1  0.46650000  0.27310000  0.72870000  1
  H  H106  1  0.51470000  0.07280000  0.66620000  1
  H  H107  1  0.54920000  0.13500000  0.68970000  1
  H  H108  1  0.57030000  0.05780000  0.69990000  1
  H  H109  1  0.39680000  0.21190000  0.59180000  1
  H  H110  1  0.38610000  0.13680000  0.64690000  1
  H  H111  1  0.32140000  0.21930000  0.72830000  1
  H  H112  1  0.26790000  0.16580000  0.74650000  1
  H  H113  1  0.31390000  0.21180000  0.77530000  1
  H  H114  1  0.84740000  0.97520000  0.82690000  1
  H  H115  1  0.77310000  0.96650000  0.77130000  1
  H  H116  1  0.57280000  0.01470000  0.83380000  1
  H  H117  1  0.63500000  0.04920000  0.81030000  1
  H  H118  1  0.55780000  0.07030000  0.80010000  1
  H  H119  1  0.71190000  0.89680000  0.90820000  1
  H  H120  1  0.63680000  0.88610000  0.85310000  1
  H  H121  1  0.15260000  0.02480000  0.82690000  1
  H  H122  1  0.22690000  0.03350000  0.77130000  1
  H  H123  1  0.42720000  0.98530000  0.83380000  1
  H  H124  1  0.36500000  0.95080000  0.81030000  1
  H  H125  1  0.44220000  0.92970000  0.80010000  1
  H  H126  1  0.28810000  0.10320000  0.90820000  1
  H  H127  1  0.36320000  0.11390000  0.85310000  1
  H  H128  1  0.97520000  0.15260000  0.82690000  1
  H  H129  1  0.96650000  0.22690000  0.77130000  1
  H  H130  1  0.01470000  0.42720000  0.83380000  1
  H  H131  1  0.04920000  0.36500000  0.81030000  1
  H  H132  1  0.07030000  0.44220000  0.80010000  1
  H  H133  1  0.89680000  0.28810000  0.90820000  1
  H  H134  1  0.88610000  0.36320000  0.85310000  1
  H  H135  1  0.82140000  0.28070000  0.77170000  1
  H  H136  1  0.76790000  0.33420000  0.75350000  1
  H  H137  1  0.81390000  0.28820000  0.72470000  1
  H  H138  1  0.02480000  0.84740000  0.82690000  1
  H  H139  1  0.03350000  0.77310000  0.77130000  1
  H  H140  1  0.98530000  0.57280000  0.83380000  1
  H  H141  1  0.95080000  0.63500000  0.81030000  1
  H  H142  1  0.92970000  0.55780000  0.80010000  1
  H  H143  1  0.10320000  0.71190000  0.90820000  1
  H  H144  1  0.11390000  0.63680000  0.85310000  1
  H  H145  1  0.17860000  0.71930000  0.77170000  1
  H  H146  1  0.23210000  0.66580000  0.75350000  1
  H  H147  1  0.18610000  0.71180000  0.72470000  1
  C  C148  1  0.08440000  0.52520000  0.27670000  1
  C  C149  1  0.30320000  0.54350000  0.33130000  1
  C  C150  1  0.34930000  0.55790000  0.40070000  1
  C  C151  1  0.26030000  0.54650000  0.29740000  1
  C  C152  1  0.13400000  0.57880000  0.27950000  1
  C  C153  1  0.08780000  0.46750000  0.30810000  1
  C  C154  1  0.28970000  0.56450000  0.37110000  1
  C  C155  1  0.19460000  0.57240000  0.30900000  1
  C  C156  1  0.22450000  0.59030000  0.38210000  1
  C  C157  1  0.18060000  0.59430000  0.34860000  1
  C  C158  1  0.91560000  0.47480000  0.27670000  1
  C  C159  1  0.69680000  0.45650000  0.33130000  1
  C  C160  1  0.65070000  0.44210000  0.40070000  1
  C  C161  1  0.73970000  0.45350000  0.29740000  1
  C  C162  1  0.86600000  0.42120000  0.27950000  1
  C  C163  1  0.91220000  0.53250000  0.30810000  1
  C  C164  1  0.71030000  0.43550000  0.37110000  1
  C  C165  1  0.80540000  0.42760000  0.30900000  1
  C  C166  1  0.77550000  0.40970000  0.38210000  1
  C  C167  1  0.81940000  0.40570000  0.34860000  1
  C  C168  1  0.47480000  0.08440000  0.27670000  1
  C  C169  1  0.45650000  0.30320000  0.33130000  1
  C  C170  1  0.44210000  0.34930000  0.40070000  1
  C  C171  1  0.45350000  0.26030000  0.29740000  1
  C  C172  1  0.42120000  0.13400000  0.27950000  1
  C  C173  1  0.53250000  0.08780000  0.30810000  1
  C  C174  1  0.43550000  0.28970000  0.37110000  1
  C  C175  1  0.42760000  0.19460000  0.30900000  1
  C  C176  1  0.40970000  0.22450000  0.38210000  1
  C  C177  1  0.40570000  0.18060000  0.34860000  1
  C  C178  1  0.52520000  0.91560000  0.27670000  1
  C  C179  1  0.54350000  0.69680000  0.33130000  1
  C  C180  1  0.55790000  0.65070000  0.40070000  1
  C  C181  1  0.54650000  0.73970000  0.29740000  1
  C  C182  1  0.57880000  0.86600000  0.27950000  1
  C  C183  1  0.46750000  0.91220000  0.30810000  1
  C  C184  1  0.56450000  0.71030000  0.37110000  1
  C  C185  1  0.57240000  0.80540000  0.30900000  1
  C  C186  1  0.59030000  0.77550000  0.38210000  1
  C  C187  1  0.59430000  0.81940000  0.34860000  1
  C  C188  1  0.41560000  0.02520000  0.22330000  1
  C  C189  1  0.19680000  0.04350000  0.16870000  1
  C  C190  1  0.15070000  0.05790000  0.09930000  1
  C  C191  1  0.23970000  0.04650000  0.20260000  1
  C  C192  1  0.36600000  0.07880000  0.22050000  1
  C  C193  1  0.41220000  0.96750000  0.19190000  1
  C  C194  1  0.21030000  0.06450000  0.12890000  1
  C  C195  1  0.30540000  0.07240000  0.19100000  1
  C  C196  1  0.27550000  0.09030000  0.11790000  1
  C  C197  1  0.31940000  0.09430000  0.15140000  1
  C  C198  1  0.58440000  0.97480000  0.22330000  1
  C  C199  1  0.80320000  0.95650000  0.16870000  1
  C  C200  1  0.84930000  0.94210000  0.09930000  1
  C  C201  1  0.76030000  0.95350000  0.20260000  1
  C  C202  1  0.63400000  0.92120000  0.22050000  1
  C  C203  1  0.58780000  0.03250000  0.19190000  1
  C  C204  1  0.78970000  0.93550000  0.12890000  1
  C  C205  1  0.69460000  0.92760000  0.19100000  1
  C  C206  1  0.72450000  0.90970000  0.11790000  1
  C  C207  1  0.68060000  0.90570000  0.15140000  1
  C  C208  1  0.02520000  0.58440000  0.22330000  1
  C  C209  1  0.04350000  0.80320000  0.16870000  1
  C  C210  1  0.05790000  0.84930000  0.09930000  1
  C  C211  1  0.04650000  0.76030000  0.20260000  1
  C  C212  1  0.07880000  0.63400000  0.22050000  1
  C  C213  1  0.96750000  0.58780000  0.19190000  1
  C  C214  1  0.06450000  0.78970000  0.12890000  1
  C  C215  1  0.07240000  0.69460000  0.19100000  1
  C  C216  1  0.09030000  0.72450000  0.11790000  1
  C  C217  1  0.09430000  0.68060000  0.15140000  1
  C  C218  1  0.97480000  0.41560000  0.22330000  1
  C  C219  1  0.95650000  0.19680000  0.16870000  1
  C  C220  1  0.94210000  0.15070000  0.09930000  1
  C  C221  1  0.95350000  0.23970000  0.20260000  1
  C  C222  1  0.92120000  0.36600000  0.22050000  1
  C  C223  1  0.03250000  0.41220000  0.19190000  1
  C  C224  1  0.93550000  0.21030000  0.12890000  1
  C  C225  1  0.92760000  0.30540000  0.19100000  1
  C  C226  1  0.90970000  0.27550000  0.11790000  1
  C  C227  1  0.90570000  0.31940000  0.15140000  1
  C  C228  1  0.91560000  0.47480000  0.72330000  1
  C  C229  1  0.69680000  0.45650000  0.66870000  1
  C  C230  1  0.65070000  0.44210000  0.59930000  1
  C  C231  1  0.73970000  0.45350000  0.70260000  1
  C  C232  1  0.86600000  0.42120000  0.72050000  1
  C  C233  1  0.91220000  0.53250000  0.69190000  1
  C  C234  1  0.71030000  0.43550000  0.62890000  1
  C  C235  1  0.80540000  0.42760000  0.69100000  1
  C  C236  1  0.77550000  0.40970000  0.61790000  1
  C  C237  1  0.81940000  0.40570000  0.65140000  1
  C  C238  1  0.08440000  0.52520000  0.72330000  1
  C  C239  1  0.30320000  0.54350000  0.66870000  1
  C  C240  1  0.34930000  0.55790000  0.59930000  1
  C  C241  1  0.26030000  0.54650000  0.70260000  1
  C  C242  1  0.13400000  0.57880000  0.72050000  1
  C  C243  1  0.08780000  0.46750000  0.69190000  1
  C  C244  1  0.28970000  0.56450000  0.62890000  1
  C  C245  1  0.19460000  0.57240000  0.69100000  1
  C  C246  1  0.22450000  0.59030000  0.61790000  1
  C  C247  1  0.18060000  0.59430000  0.65140000  1
  C  C248  1  0.52520000  0.91560000  0.72330000  1
  C  C249  1  0.54350000  0.69680000  0.66870000  1
  C  C250  1  0.55790000  0.65070000  0.59930000  1
  C  C251  1  0.54650000  0.73970000  0.70260000  1
  C  C252  1  0.57880000  0.86600000  0.72050000  1
  C  C253  1  0.46750000  0.91220000  0.69190000  1
  C  C254  1  0.56450000  0.71030000  0.62890000  1
  C  C255  1  0.57240000  0.80540000  0.69100000  1
  C  C256  1  0.59030000  0.77550000  0.61790000  1
  C  C257  1  0.59430000  0.81940000  0.65140000  1
  C  C258  1  0.47480000  0.08440000  0.72330000  1
  C  C259  1  0.45650000  0.30320000  0.66870000  1
  C  C260  1  0.44210000  0.34930000  0.59930000  1
  C  C261  1  0.45350000  0.26030000  0.70260000  1
  C  C262  1  0.42120000  0.13400000  0.72050000  1
  C  C263  1  0.53250000  0.08780000  0.69190000  1
  C  C264  1  0.43550000  0.28970000  0.62890000  1
  C  C265  1  0.42760000  0.19460000  0.69100000  1
  C  C266  1  0.40970000  0.22450000  0.61790000  1
  C  C267  1  0.40570000  0.18060000  0.65140000  1
  C  C268  1  0.58440000  0.97480000  0.77670000  1
  C  C269  1  0.80320000  0.95650000  0.83130000  1
  C  C270  1  0.84930000  0.94210000  0.90070000  1
  C  C271  1  0.76030000  0.95350000  0.79740000  1
  C  C272  1  0.63400000  0.92120000  0.77950000  1
  C  C273  1  0.58780000  0.03250000  0.80810000  1
  C  C274  1  0.78970000  0.93550000  0.87110000  1
  C  C275  1  0.69460000  0.92760000  0.80900000  1
  C  C276  1  0.72450000  0.90970000  0.88210000  1
  C  C277  1  0.68060000  0.90570000  0.84860000  1
  C  C278  1  0.41560000  0.02520000  0.77670000  1
  C  C279  1  0.19680000  0.04350000  0.83130000  1
  C  C280  1  0.15070000  0.05790000  0.90070000  1
  C  C281  1  0.23970000  0.04650000  0.79740000  1
  C  C282  1  0.36600000  0.07880000  0.77950000  1
  C  C283  1  0.41220000  0.96750000  0.80810000  1
  C  C284  1  0.21030000  0.06450000  0.87110000  1
  C  C285  1  0.30540000  0.07240000  0.80900000  1
  C  C286  1  0.27550000  0.09030000  0.88210000  1
  C  C287  1  0.31940000  0.09430000  0.84860000  1
  C  C288  1  0.97480000  0.41560000  0.77670000  1
  C  C289  1  0.95650000  0.19680000  0.83130000  1
  C  C290  1  0.94210000  0.15070000  0.90070000  1
  C  C291  1  0.95350000  0.23970000  0.79740000  1
  C  C292  1  0.92120000  0.36600000  0.77950000  1
  C  C293  1  0.03250000  0.41220000  0.80810000  1
  C  C294  1  0.93550000  0.21030000  0.87110000  1
  C  C295  1  0.92760000  0.30540000  0.80900000  1
  C  C296  1  0.90970000  0.27550000  0.88210000  1
  C  C297  1  0.90570000  0.31940000  0.84860000  1
  C  C298  1  0.02520000  0.58440000  0.77670000  1
  C  C299  1  0.04350000  0.80320000  0.83130000  1
  C  C300  1  0.05790000  0.84930000  0.90070000  1
  C  C301  1  0.04650000  0.76030000  0.79740000  1
  C  C302  1  0.07880000  0.63400000  0.77950000  1
  C  C303  1  0.96750000  0.58780000  0.80810000  1
  C  C304  1  0.06450000  0.78970000  0.87110000  1
  C  C305  1  0.07240000  0.69460000  0.80900000  1
  C  C306  1  0.09030000  0.72450000  0.88210000  1
  C  C307  1  0.09430000  0.68060000  0.84860000  1
  C  C308  1  0.02780000  0.52780000  0.25000000  1
  C  C309  1  0.13160000  0.63160000  0.25000000  1
  C  C310  1  0.18710000  0.68710000  0.25000000  1
  C  C311  1  0.97220000  0.47220000  0.25000000  1
  C  C312  1  0.86840000  0.36840000  0.25000000  1
  C  C313  1  0.81290000  0.31290000  0.25000000  1
  C  C314  1  0.47220000  0.02780000  0.25000000  1
  C  C315  1  0.36840000  0.13160000  0.25000000  1
  C  C316  1  0.31290000  0.18710000  0.25000000  1
  C  C317  1  0.52780000  0.97220000  0.25000000  1
  C  C318  1  0.63160000  0.86840000  0.25000000  1
  C  C319  1  0.68710000  0.81290000  0.25000000  1
  C  C320  1  0.97220000  0.47220000  0.75000000  1
  C  C321  1  0.86840000  0.36840000  0.75000000  1
  C  C322  1  0.81290000  0.31290000  0.75000000  1
  C  C323  1  0.02780000  0.52780000  0.75000000  1
  C  C324  1  0.13160000  0.63160000  0.75000000  1
  C  C325  1  0.18710000  0.68710000  0.75000000  1
  C  C326  1  0.52780000  0.97220000  0.75000000  1
  C  C327  1  0.63160000  0.86840000  0.75000000  1
  C  C328  1  0.68710000  0.81290000  0.75000000  1
  C  C329  1  0.47220000  0.02780000  0.75000000  1
  C  C330  1  0.36840000  0.13160000  0.75000000  1
  C  C331  1  0.31290000  0.18710000  0.75000000  1
  O  O332  1  0.40780000  0.52880000  0.39000000  1
  O  O333  1  0.32610000  0.56150000  0.43890000  1
  O  O334  1  0.41540000  0.46300000  0.46380000  1
  O  O335  1  0.59220000  0.47120000  0.39000000  1
  O  O336  1  0.67390000  0.43850000  0.43890000  1
  O  O337  1  0.58460000  0.53700000  0.46380000  1
  O  O338  1  0.47120000  0.40780000  0.39000000  1
  O  O339  1  0.43850000  0.32610000  0.43890000  1
  O  O340  1  0.53700000  0.41540000  0.46380000  1
  O  O341  1  0.52880000  0.59220000  0.39000000  1
  O  O342  1  0.56150000  0.67390000  0.43890000  1
  O  O343  1  0.46300000  0.58460000  0.46380000  1
  O  O344  1  0.09220000  0.02880000  0.11000000  1
  O  O345  1  0.17390000  0.06150000  0.06110000  1
  O  O346  1  0.08460000  0.96300000  0.03620000  1
  O  O347  1  0.90780000  0.97120000  0.11000000  1
  O  O348  1  0.82610000  0.93850000  0.06110000  1
  O  O349  1  0.91540000  0.03700000  0.03620000  1
  O  O350  1  0.02880000  0.90780000  0.11000000  1
  O  O351  1  0.06150000  0.82610000  0.06110000  1
  O  O352  1  0.96300000  0.91540000  0.03620000  1
  O  O353  1  0.97120000  0.09220000  0.11000000  1
  O  O354  1  0.93850000  0.17390000  0.06110000  1
  O  O355  1  0.03700000  0.08460000  0.03620000  1
  O  O356  1  0.59220000  0.47120000  0.61000000  1
  O  O357  1  0.67390000  0.43850000  0.56110000  1
  O  O358  1  0.58460000  0.53700000  0.53620000  1
  O  O359  1  0.40780000  0.52880000  0.61000000  1
  O  O360  1  0.32610000  0.56150000  0.56110000  1
  O  O361  1  0.41540000  0.46300000  0.53620000  1
  O  O362  1  0.52880000  0.59220000  0.61000000  1
  O  O363  1  0.56150000  0.67390000  0.56110000  1
  O  O364  1  0.46300000  0.58460000  0.53620000  1
  O  O365  1  0.47120000  0.40780000  0.61000000  1
  O  O366  1  0.43850000  0.32610000  0.56110000  1
  O  O367  1  0.53700000  0.41540000  0.53620000  1
  O  O368  1  0.90780000  0.97120000  0.89000000  1
  O  O369  1  0.82610000  0.93850000  0.93890000  1
  O  O370  1  0.91540000  0.03700000  0.96380000  1
  O  O371  1  0.09220000  0.02880000  0.89000000  1
  O  O372  1  0.17390000  0.06150000  0.93890000  1
  O  O373  1  0.08460000  0.96300000  0.96380000  1
  O  O374  1  0.97120000  0.09220000  0.89000000  1
  O  O375  1  0.93850000  0.17390000  0.93890000  1
  O  O376  1  0.03700000  0.08460000  0.96380000  1
  O  O377  1  0.02880000  0.90780000  0.89000000  1
  O  O378  1  0.06150000  0.82610000  0.93890000  1
  O  O379  1  0.96300000  0.91540000  0.96380000  1
