# generated using pymatgen
data_Zr3H24(C11O4)4
_symmetry_space_group_name_H-M   'P 1'
_cell_length_a   15.08980000
_cell_length_b   21.53100000
_cell_length_c   35.05300000
_cell_angle_alpha   90.00000000
_cell_angle_beta   90.00000000
_cell_angle_gamma   90.00000000
_symmetry_Int_Tables_number   1
_chemical_formula_structural   Zr3H24(C11O4)4
_chemical_formula_sum   'Zr12 H96 C176 O64'
_cell_volume   11388.66655264
_cell_formula_units_Z   4
loop_
 _symmetry_equiv_pos_site_id
 _symmetry_equiv_pos_as_xyz
  1  'x, y, z'
loop_
 _atom_site_type_symbol
 _atom_site_label
 _atom_site_symmetry_multiplicity
 _atom_site_fract_x
 _atom_site_fract_y
 _atom_site_fract_z
 _atom_site_occupancy
  Zr  Zr0  1  0.50000000  0.00000000  0.06946000  1
  Zr  Zr1  1  0.50000000  0.50000000  0.56946000  1
  Zr  Zr2  1  0.50000000  0.00000000  0.93054000  1
  Zr  Zr3  1  0.50000000  0.50000000  0.43054000  1
  Zr  Zr4  1  0.38206000  0.08189000  0.00000000  1
  Zr  Zr5  1  0.38206000  0.58189000  0.50000000  1
  Zr  Zr6  1  0.38206000  0.91811000  0.00000000  1
  Zr  Zr7  1  0.38206000  0.41811000  0.50000000  1
  Zr  Zr8  1  0.61794000  0.91811000  0.00000000  1
  Zr  Zr9  1  0.61794000  0.41811000  0.50000000  1
  Zr  Zr10  1  0.61794000  0.08189000  0.00000000  1
  Zr  Zr11  1  0.61794000  0.58189000  0.50000000  1
  H  H12  1  0.23900000  0.19520000  0.09370000  1
  H  H13  1  0.06870000  0.20760000  0.19910000  1
  H  H14  1  0.37040000  0.08000000  0.16540000  1
  H  H15  1  0.30050000  0.12980000  0.21730000  1
  H  H16  1  0.17750000  0.24490000  0.14550000  1
  H  H17  1  0.23900000  0.69520000  0.59370000  1
  H  H18  1  0.06870000  0.70760000  0.69910000  1
  H  H19  1  0.37040000  0.58000000  0.66540000  1
  H  H20  1  0.30050000  0.62980000  0.71730000  1
  H  H21  1  0.17750000  0.74490000  0.64550000  1
  H  H22  1  0.23900000  0.80480000  0.90630000  1
  H  H23  1  0.06870000  0.79240000  0.80090000  1
  H  H24  1  0.37040000  0.92000000  0.83460000  1
  H  H25  1  0.30050000  0.87020000  0.78270000  1
  H  H26  1  0.17750000  0.75510000  0.85450000  1
  H  H27  1  0.23900000  0.30480000  0.40630000  1
  H  H28  1  0.06870000  0.29240000  0.30090000  1
  H  H29  1  0.37040000  0.42000000  0.33460000  1
  H  H30  1  0.30050000  0.37020000  0.28270000  1
  H  H31  1  0.17750000  0.25510000  0.35450000  1
  H  H32  1  0.76100000  0.80480000  0.09370000  1
  H  H33  1  0.93130000  0.79240000  0.19910000  1
  H  H34  1  0.62960000  0.92000000  0.16540000  1
  H  H35  1  0.69950000  0.87020000  0.21730000  1
  H  H36  1  0.82250000  0.75510000  0.14550000  1
  H  H37  1  0.76100000  0.30480000  0.59370000  1
  H  H38  1  0.93130000  0.29240000  0.69910000  1
  H  H39  1  0.62960000  0.42000000  0.66540000  1
  H  H40  1  0.69950000  0.37020000  0.71730000  1
  H  H41  1  0.82250000  0.25510000  0.64550000  1
  H  H42  1  0.76100000  0.19520000  0.90630000  1
  H  H43  1  0.93130000  0.20760000  0.80090000  1
  H  H44  1  0.62960000  0.08000000  0.83460000  1
  H  H45  1  0.69950000  0.12980000  0.78270000  1
  H  H46  1  0.82250000  0.24490000  0.85450000  1
  H  H47  1  0.76100000  0.69520000  0.40630000  1
  H  H48  1  0.93130000  0.70760000  0.30090000  1
  H  H49  1  0.62960000  0.58000000  0.33460000  1
  H  H50  1  0.69950000  0.62980000  0.28270000  1
  H  H51  1  0.82250000  0.74490000  0.35450000  1
  H  H52  1  0.76100000  0.80480000  0.90630000  1
  H  H53  1  0.93130000  0.79240000  0.80090000  1
  H  H54  1  0.62960000  0.92000000  0.83460000  1
  H  H55  1  0.69950000  0.87020000  0.78270000  1
  H  H56  1  0.82250000  0.75510000  0.85450000  1
  H  H57  1  0.76100000  0.30480000  0.40630000  1
  H  H58  1  0.93130000  0.29240000  0.30090000  1
  H  H59  1  0.62960000  0.42000000  0.33460000  1
  H  H60  1  0.69950000  0.37020000  0.28270000  1
  H  H61  1  0.82250000  0.25510000  0.35450000  1
  H  H62  1  0.76100000  0.19520000  0.09370000  1
  H  H63  1  0.93130000  0.20760000  0.19910000  1
  H  H64  1  0.62960000  0.08000000  0.16540000  1
  H  H65  1  0.69950000  0.12980000  0.21730000  1
  H  H66  1  0.82250000  0.24490000  0.14550000  1
  H  H67  1  0.76100000  0.69520000  0.59370000  1
  H  H68  1  0.93130000  0.70760000  0.69910000  1
  H  H69  1  0.62960000  0.58000000  0.66540000  1
  H  H70  1  0.69950000  0.62980000  0.71730000  1
  H  H71  1  0.82250000  0.74490000  0.64550000  1
  H  H72  1  0.23900000  0.19520000  0.90630000  1
  H  H73  1  0.06870000  0.20760000  0.80090000  1
  H  H74  1  0.37040000  0.08000000  0.83460000  1
  H  H75  1  0.30050000  0.12980000  0.78270000  1
  H  H76  1  0.17750000  0.24490000  0.85450000  1
  H  H77  1  0.23900000  0.69520000  0.40630000  1
  H  H78  1  0.06870000  0.70760000  0.30090000  1
  H  H79  1  0.37040000  0.58000000  0.33460000  1
  H  H80  1  0.30050000  0.62980000  0.28270000  1
  H  H81  1  0.17750000  0.74490000  0.35450000  1
  H  H82  1  0.23900000  0.80480000  0.09370000  1
  H  H83  1  0.06870000  0.79240000  0.19910000  1
  H  H84  1  0.37040000  0.92000000  0.16540000  1
  H  H85  1  0.30050000  0.87020000  0.21730000  1
  H  H86  1  0.17750000  0.75510000  0.14550000  1
  H  H87  1  0.23900000  0.30480000  0.59370000  1
  H  H88  1  0.06870000  0.29240000  0.69910000  1
  H  H89  1  0.37040000  0.42000000  0.66540000  1
  H  H90  1  0.30050000  0.37020000  0.71730000  1
  H  H91  1  0.17750000  0.25510000  0.64550000  1
  H  H92  1  0.07370000  0.08930000  0.00000000  1
  H  H93  1  0.07370000  0.58930000  0.50000000  1
  H  H94  1  0.07370000  0.91070000  0.00000000  1
  H  H95  1  0.07370000  0.41070000  0.50000000  1
  H  H96  1  0.92630000  0.91070000  0.00000000  1
  H  H97  1  0.92630000  0.41070000  0.50000000  1
  H  H98  1  0.92630000  0.08930000  0.00000000  1
  H  H99  1  0.92630000  0.58930000  0.50000000  1
  H  H100  1  0.35362000  0.28437000  0.27111000  1
  H  H101  1  0.64638000  0.78437000  0.27111000  1
  H  H102  1  0.64638000  0.28437000  0.27111000  1
  H  H103  1  0.35362000  0.78437000  0.27111000  1
  H  H104  1  0.35362000  0.75000000  0.72014000  1
  H  H105  1  0.64638000  0.25000000  0.77986000  1
  H  H106  1  0.64638000  0.75000000  0.77986000  1
  H  H107  1  0.35362000  0.25000000  0.72014000  1
  C  C108  1  0.35640000  0.10090000  0.09239000  1
  C  C109  1  0.25370000  0.18200000  0.11870000  1
  C  C110  1  0.18850000  0.22550000  0.21930000  1
  C  C111  1  0.09950000  0.22540000  0.22000000  1
  C  C112  1  0.23440000  0.19480000  0.18590000  1
  C  C113  1  0.31270000  0.13300000  0.12425000  1
  C  C114  1  0.33080000  0.11350000  0.16100000  1
  C  C115  1  0.29000000  0.14400000  0.19200000  1
  C  C116  1  0.21710000  0.21130000  0.14980000  1
  C  C117  1  0.35640000  0.60090000  0.59239000  1
  C  C118  1  0.25370000  0.68200000  0.61870000  1
  C  C119  1  0.18850000  0.72550000  0.71930000  1
  C  C120  1  0.09950000  0.72540000  0.72000000  1
  C  C121  1  0.23440000  0.69480000  0.68590000  1
  C  C122  1  0.31270000  0.63300000  0.62425000  1
  C  C123  1  0.33080000  0.61350000  0.66100000  1
  C  C124  1  0.29000000  0.64400000  0.69200000  1
  C  C125  1  0.21710000  0.71130000  0.64980000  1
  C  C126  1  0.35640000  0.89910000  0.90761000  1
  C  C127  1  0.25370000  0.81800000  0.88130000  1
  C  C128  1  0.18850000  0.77450000  0.78070000  1
  C  C129  1  0.09950000  0.77460000  0.78000000  1
  C  C130  1  0.23440000  0.80520000  0.81410000  1
  C  C131  1  0.31270000  0.86700000  0.87575000  1
  C  C132  1  0.33080000  0.88650000  0.83900000  1
  C  C133  1  0.29000000  0.85600000  0.80800000  1
  C  C134  1  0.21710000  0.78870000  0.85020000  1
  C  C135  1  0.35640000  0.39910000  0.40761000  1
  C  C136  1  0.25370000  0.31800000  0.38130000  1
  C  C137  1  0.18850000  0.27450000  0.28070000  1
  C  C138  1  0.09950000  0.27460000  0.28000000  1
  C  C139  1  0.23440000  0.30520000  0.31410000  1
  C  C140  1  0.31270000  0.36700000  0.37575000  1
  C  C141  1  0.33080000  0.38650000  0.33900000  1
  C  C142  1  0.29000000  0.35600000  0.30800000  1
  C  C143  1  0.21710000  0.28870000  0.35020000  1
  C  C144  1  0.64360000  0.89910000  0.09239000  1
  C  C145  1  0.74630000  0.81800000  0.11870000  1
  C  C146  1  0.81150000  0.77450000  0.21930000  1
  C  C147  1  0.90050000  0.77460000  0.22000000  1
  C  C148  1  0.76560000  0.80520000  0.18590000  1
  C  C149  1  0.68730000  0.86700000  0.12425000  1
  C  C150  1  0.66920000  0.88650000  0.16100000  1
  C  C151  1  0.71000000  0.85600000  0.19200000  1
  C  C152  1  0.78290000  0.78870000  0.14980000  1
  C  C153  1  0.64360000  0.39910000  0.59239000  1
  C  C154  1  0.74630000  0.31800000  0.61870000  1
  C  C155  1  0.81150000  0.27450000  0.71930000  1
  C  C156  1  0.90050000  0.27460000  0.72000000  1
  C  C157  1  0.76560000  0.30520000  0.68590000  1
  C  C158  1  0.68730000  0.36700000  0.62425000  1
  C  C159  1  0.66920000  0.38650000  0.66100000  1
  C  C160  1  0.71000000  0.35600000  0.69200000  1
  C  C161  1  0.78290000  0.28870000  0.64980000  1
  C  C162  1  0.64360000  0.10090000  0.90761000  1
  C  C163  1  0.74630000  0.18200000  0.88130000  1
  C  C164  1  0.81150000  0.22550000  0.78070000  1
  C  C165  1  0.90050000  0.22540000  0.78000000  1
  C  C166  1  0.76560000  0.19480000  0.81410000  1
  C  C167  1  0.68730000  0.13300000  0.87575000  1
  C  C168  1  0.66920000  0.11350000  0.83900000  1
  C  C169  1  0.71000000  0.14400000  0.80800000  1
  C  C170  1  0.78290000  0.21130000  0.85020000  1
  C  C171  1  0.64360000  0.60090000  0.40761000  1
  C  C172  1  0.74630000  0.68200000  0.38130000  1
  C  C173  1  0.81150000  0.72550000  0.28070000  1
  C  C174  1  0.90050000  0.72540000  0.28000000  1
  C  C175  1  0.76560000  0.69480000  0.31410000  1
  C  C176  1  0.68730000  0.63300000  0.37575000  1
  C  C177  1  0.66920000  0.61350000  0.33900000  1
  C  C178  1  0.71000000  0.64400000  0.30800000  1
  C  C179  1  0.78290000  0.71130000  0.35020000  1
  C  C180  1  0.64360000  0.89910000  0.90761000  1
  C  C181  1  0.74630000  0.81800000  0.88130000  1
  C  C182  1  0.81150000  0.77450000  0.78070000  1
  C  C183  1  0.90050000  0.77460000  0.78000000  1
  C  C184  1  0.76560000  0.80520000  0.81410000  1
  C  C185  1  0.68730000  0.86700000  0.87575000  1
  C  C186  1  0.66920000  0.88650000  0.83900000  1
  C  C187  1  0.71000000  0.85600000  0.80800000  1
  C  C188  1  0.78290000  0.78870000  0.85020000  1
  C  C189  1  0.64360000  0.39910000  0.40761000  1
  C  C190  1  0.74630000  0.31800000  0.38130000  1
  C  C191  1  0.81150000  0.27450000  0.28070000  1
  C  C192  1  0.90050000  0.27460000  0.28000000  1
  C  C193  1  0.76560000  0.30520000  0.31410000  1
  C  C194  1  0.68730000  0.36700000  0.37575000  1
  C  C195  1  0.66920000  0.38650000  0.33900000  1
  C  C196  1  0.71000000  0.35600000  0.30800000  1
  C  C197  1  0.78290000  0.28870000  0.35020000  1
  C  C198  1  0.64360000  0.10090000  0.09239000  1
  C  C199  1  0.74630000  0.18200000  0.11870000  1
  C  C200  1  0.81150000  0.22550000  0.21930000  1
  C  C201  1  0.90050000  0.22540000  0.22000000  1
  C  C202  1  0.76560000  0.19480000  0.18590000  1
  C  C203  1  0.68730000  0.13300000  0.12425000  1
  C  C204  1  0.66920000  0.11350000  0.16100000  1
  C  C205  1  0.71000000  0.14400000  0.19200000  1
  C  C206  1  0.78290000  0.21130000  0.14980000  1
  C  C207  1  0.64360000  0.60090000  0.59239000  1
  C  C208  1  0.74630000  0.68200000  0.61870000  1
  C  C209  1  0.81150000  0.72550000  0.71930000  1
  C  C210  1  0.90050000  0.72540000  0.72000000  1
  C  C211  1  0.76560000  0.69480000  0.68590000  1
  C  C212  1  0.68730000  0.63300000  0.62425000  1
  C  C213  1  0.66920000  0.61350000  0.66100000  1
  C  C214  1  0.71000000  0.64400000  0.69200000  1
  C  C215  1  0.78290000  0.71130000  0.64980000  1
  C  C216  1  0.35640000  0.10090000  0.90761000  1
  C  C217  1  0.25370000  0.18200000  0.88130000  1
  C  C218  1  0.18850000  0.22550000  0.78070000  1
  C  C219  1  0.09950000  0.22540000  0.78000000  1
  C  C220  1  0.23440000  0.19480000  0.81410000  1
  C  C221  1  0.31270000  0.13300000  0.87575000  1
  C  C222  1  0.33080000  0.11350000  0.83900000  1
  C  C223  1  0.29000000  0.14400000  0.80800000  1
  C  C224  1  0.21710000  0.21130000  0.85020000  1
  C  C225  1  0.35640000  0.60090000  0.40761000  1
  C  C226  1  0.25370000  0.68200000  0.38130000  1
  C  C227  1  0.18850000  0.72550000  0.28070000  1
  C  C228  1  0.09950000  0.72540000  0.28000000  1
  C  C229  1  0.23440000  0.69480000  0.31410000  1
  C  C230  1  0.31270000  0.63300000  0.37575000  1
  C  C231  1  0.33080000  0.61350000  0.33900000  1
  C  C232  1  0.29000000  0.64400000  0.30800000  1
  C  C233  1  0.21710000  0.71130000  0.35020000  1
  C  C234  1  0.35640000  0.89910000  0.09239000  1
  C  C235  1  0.25370000  0.81800000  0.11870000  1
  C  C236  1  0.18850000  0.77450000  0.21930000  1
  C  C237  1  0.09950000  0.77460000  0.22000000  1
  C  C238  1  0.23440000  0.80520000  0.18590000  1
  C  C239  1  0.31270000  0.86700000  0.12425000  1
  C  C240  1  0.33080000  0.88650000  0.16100000  1
  C  C241  1  0.29000000  0.85600000  0.19200000  1
  C  C242  1  0.21710000  0.78870000  0.14980000  1
  C  C243  1  0.35640000  0.39910000  0.59239000  1
  C  C244  1  0.25370000  0.31800000  0.61870000  1
  C  C245  1  0.18850000  0.27450000  0.71930000  1
  C  C246  1  0.09950000  0.27460000  0.72000000  1
  C  C247  1  0.23440000  0.30520000  0.68590000  1
  C  C248  1  0.31270000  0.36700000  0.62425000  1
  C  C249  1  0.33080000  0.38650000  0.66100000  1
  C  C250  1  0.29000000  0.35600000  0.69200000  1
  C  C251  1  0.21710000  0.28870000  0.64980000  1
  C  C252  1  0.04220000  0.05112000  0.00000000  1
  C  C253  1  0.04220000  0.55112000  0.50000000  1
  C  C254  1  0.04220000  0.94888000  0.00000000  1
  C  C255  1  0.04220000  0.44888000  0.50000000  1
  C  C256  1  0.95780000  0.94888000  0.00000000  1
  C  C257  1  0.95780000  0.44888000  0.50000000  1
  C  C258  1  0.95780000  0.05112000  0.00000000  1
  C  C259  1  0.95780000  0.55112000  0.50000000  1
  C  C260  1  0.05040000  0.25000000  0.25000000  1
  C  C261  1  0.23570000  0.25000000  0.25000000  1
  C  C262  1  0.05040000  0.75000000  0.75000000  1
  C  C263  1  0.23570000  0.75000000  0.75000000  1
  C  C264  1  0.94960000  0.75000000  0.25000000  1
  C  C265  1  0.76430000  0.75000000  0.25000000  1
  C  C266  1  0.94960000  0.25000000  0.75000000  1
  C  C267  1  0.76430000  0.25000000  0.75000000  1
  C  C268  1  0.94960000  0.75000000  0.75000000  1
  C  C269  1  0.76430000  0.75000000  0.75000000  1
  C  C270  1  0.94960000  0.25000000  0.25000000  1
  C  C271  1  0.76430000  0.25000000  0.25000000  1
  C  C272  1  0.05040000  0.25000000  0.75000000  1
  C  C273  1  0.23570000  0.25000000  0.75000000  1
  C  C274  1  0.05040000  0.75000000  0.25000000  1
  C  C275  1  0.23570000  0.75000000  0.25000000  1
  C  C276  1  0.08440000  0.00000000  0.00000000  1
  C  C277  1  0.18390000  0.00000000  0.00000000  1
  C  C278  1  0.08440000  0.50000000  0.50000000  1
  C  C279  1  0.18390000  0.50000000  0.50000000  1
  C  C280  1  0.91560000  0.00000000  0.00000000  1
  C  C281  1  0.81610000  0.00000000  0.00000000  1
  C  C282  1  0.91560000  0.50000000  0.50000000  1
  C  C283  1  0.81610000  0.50000000  0.50000000  1
  O  O284  1  0.41220000  0.06080000  0.10128000  1
  O  O285  1  0.33370000  0.11480000  0.05826000  1
  O  O286  1  0.41220000  0.56080000  0.60128000  1
  O  O287  1  0.33370000  0.61480000  0.55826000  1
  O  O288  1  0.41220000  0.93920000  0.89872000  1
  O  O289  1  0.33370000  0.88520000  0.94174000  1
  O  O290  1  0.41220000  0.43920000  0.39872000  1
  O  O291  1  0.33370000  0.38520000  0.44174000  1
  O  O292  1  0.58780000  0.93920000  0.10128000  1
  O  O293  1  0.66630000  0.88520000  0.05826000  1
  O  O294  1  0.58780000  0.43920000  0.60128000  1
  O  O295  1  0.66630000  0.38520000  0.55826000  1
  O  O296  1  0.58780000  0.06080000  0.89872000  1
  O  O297  1  0.66630000  0.11480000  0.94174000  1
  O  O298  1  0.58780000  0.56080000  0.39872000  1
  O  O299  1  0.66630000  0.61480000  0.44174000  1
  O  O300  1  0.58780000  0.93920000  0.89872000  1
  O  O301  1  0.66630000  0.88520000  0.94174000  1
  O  O302  1  0.58780000  0.43920000  0.39872000  1
  O  O303  1  0.66630000  0.38520000  0.44174000  1
  O  O304  1  0.58780000  0.06080000  0.10128000  1
  O  O305  1  0.66630000  0.11480000  0.05826000  1
  O  O306  1  0.58780000  0.56080000  0.60128000  1
  O  O307  1  0.66630000  0.61480000  0.55826000  1
  O  O308  1  0.41220000  0.06080000  0.89872000  1
  O  O309  1  0.33370000  0.11480000  0.94174000  1
  O  O310  1  0.41220000  0.56080000  0.39872000  1
  O  O311  1  0.33370000  0.61480000  0.44174000  1
  O  O312  1  0.41220000  0.93920000  0.10128000  1
  O  O313  1  0.33370000  0.88520000  0.05826000  1
  O  O314  1  0.41220000  0.43920000  0.60128000  1
  O  O315  1  0.33370000  0.38520000  0.55826000  1
  O  O316  1  0.23880000  0.07350000  0.00000000  1
  O  O317  1  0.23880000  0.57350000  0.50000000  1
  O  O318  1  0.23880000  0.92650000  0.00000000  1
  O  O319  1  0.23880000  0.42650000  0.50000000  1
  O  O320  1  0.76120000  0.92650000  0.00000000  1
  O  O321  1  0.76120000  0.42650000  0.50000000  1
  O  O322  1  0.76120000  0.07350000  0.00000000  1
  O  O323  1  0.76120000  0.57350000  0.50000000  1
  O  O324  1  0.38160000  1.00000000  0.03412000  1
  O  O325  1  0.38160000  0.50000000  0.53412000  1
  O  O326  1  0.38160000  1.00000000  0.96588000  1
  O  O327  1  0.38160000  0.50000000  0.46588000  1
  O  O328  1  0.61840000  1.00000000  0.03412000  1
  O  O329  1  0.61840000  0.50000000  0.53412000  1
  O  O330  1  0.61840000  1.00000000  0.96588000  1
  O  O331  1  0.61840000  0.50000000  0.46588000  1
  O  O332  1  0.50000000  0.08340000  0.03339000  1
  O  O333  1  0.50000000  0.58340000  0.53339000  1
  O  O334  1  0.50000000  0.91660000  0.96661000  1
  O  O335  1  0.50000000  0.41660000  0.46661000  1
  O  O336  1  0.50000000  0.91660000  0.03339000  1
  O  O337  1  0.50000000  0.41660000  0.53339000  1
  O  O338  1  0.50000000  0.08340000  0.96661000  1
  O  O339  1  0.50000000  0.58340000  0.46661000  1
  O  O340  1  0.32910000  0.25000000  0.25000000  1
  O  O341  1  0.32910000  0.75000000  0.75000000  1
  O  O342  1  0.67090000  0.75000000  0.25000000  1
  O  O343  1  0.67090000  0.25000000  0.75000000  1
  O  O344  1  0.67090000  0.75000000  0.75000000  1
  O  O345  1  0.67090000  0.25000000  0.25000000  1
  O  O346  1  0.32910000  0.25000000  0.75000000  1
  O  O347  1  0.32910000  0.75000000  0.25000000  1
