# generated using pymatgen
data_Zr3H22C42NO13
_symmetry_space_group_name_H-M   'P 1'
_cell_length_a   17.70430000
_cell_length_b   25.49758092
_cell_length_c   25.49758092
_cell_angle_alpha   80.70950374
_cell_angle_beta   69.68531195
_cell_angle_gamma   69.68531195
_symmetry_Int_Tables_number   1
_chemical_formula_structural   Zr3H22C42NO13
_chemical_formula_sum   'Zr12 H88 C168 N4 O52'
_cell_volume   10111.76094903
_cell_formula_units_Z   4
loop_
 _symmetry_equiv_pos_site_id
 _symmetry_equiv_pos_as_xyz
  1  'x, y, z'
loop_
 _atom_site_type_symbol
 _atom_site_label
 _atom_site_symmetry_multiplicity
 _atom_site_fract_x
 _atom_site_fract_y
 _atom_site_fract_z
 _atom_site_occupancy
  C  C0  1  0.02946000  0.99374000  0.25774000  1
  C  C1  1  0.02773000  0.93777000  0.24757000  1
  C  C2  1  0.02652000  0.09784000  0.28232000  1
  C  C3  1  0.01797000  0.24821000  0.29165000  1
  C  C4  1  0.98136000  0.19811000  0.55517000  1
  C  C5  1  0.97461000  0.20002000  0.61496000  1
  C  C6  1  0.08629000  0.01955000  0.22287000  1
  C  C7  1  0.00779000  0.20033000  0.38149000  1
  C  C8  1  0.02740000  0.20029000  0.26771000  1
  C  C9  1  0.01472000  0.15224000  0.35772000  1
  C  C10  1  0.00888000  0.24857000  0.34827000  1
  C  C11  1  0.08258000  0.07155000  0.23549000  1
  C  C12  1  0.02627000  0.14954000  0.30092000  1
  C  C13  1  0.03637000  0.15316000  0.52350000  1
  C  C14  1  0.99664000  0.19878000  0.44214000  1
  C  C15  1  0.94151000  0.24339000  0.47359000  1
  C  C16  1  0.04327000  0.15333000  0.46733000  1
  C  C17  1  0.96770000  0.02093000  0.30467000  1
  C  C18  1  0.96779000  0.07201000  0.31681000  1
  C  C19  1  0.93116000  0.24366000  0.53062000  1
  C  C20  1  0.06890000  0.97810000  0.02190000  1
  C  C21  1  0.00000000  0.91280000  0.08720000  1
  C  C22  1  0.00000000  0.95810000  0.04190000  1
  C  C23  1  0.71906000  0.25774000  0.99374000  1
  C  C24  1  0.78693000  0.24757000  0.93777000  1
  C  C25  1  0.59332000  0.28232000  0.09784000  1
  C  C26  1  0.44217000  0.29165000  0.24821000  1
  C  C27  1  0.26536000  0.55517000  0.19811000  1
  C  C28  1  0.21041000  0.61496000  0.20002000  1
  C  C29  1  0.67129000  0.22287000  0.01955000  1
  C  C30  1  0.41039000  0.38149000  0.20033000  1
  C  C31  1  0.50460000  0.26771000  0.20029000  1
  C  C32  1  0.47532000  0.35772000  0.15224000  1
  C  C33  1  0.39428000  0.34827000  0.24857000  1
  C  C34  1  0.61038000  0.23549000  0.07155000  1
  C  C35  1  0.52327000  0.30092000  0.14954000  1
  C  C36  1  0.28697000  0.52350000  0.15316000  1
  C  C37  1  0.36244000  0.44214000  0.19878000  1
  C  C38  1  0.34151000  0.47359000  0.24339000  1
  C  C39  1  0.33607000  0.46733000  0.15333000  1
  C  C40  1  0.70670000  0.30467000  0.02093000  1
  C  C41  1  0.64339000  0.31681000  0.07201000  1
  C  C42  1  0.29456000  0.53062000  0.24366000  1
  C  C43  1  0.93110000  0.02190000  0.97810000  1
  C  C44  1  0.00000000  0.08720000  0.91280000  1
  C  C45  1  0.00000000  0.04190000  0.95810000  1
  C  C46  1  0.28094000  0.00626000  0.74226000  1
  C  C47  1  0.21307000  0.06223000  0.75243000  1
  C  C48  1  0.40668000  0.90216000  0.71768000  1
  C  C49  1  0.55783000  0.75179000  0.70835000  1
  C  C50  1  0.73464000  0.80189000  0.44483000  1
  C  C51  1  0.78959000  0.79998000  0.38504000  1
  C  C52  1  0.32871000  0.98045000  0.77713000  1
  C  C53  1  0.58961000  0.79967000  0.61851000  1
  C  C54  1  0.49540000  0.79971000  0.73229000  1
  C  C55  1  0.52468000  0.84776000  0.64228000  1
  C  C56  1  0.60572000  0.75143000  0.65173000  1
  C  C57  1  0.38962000  0.92845000  0.76451000  1
  C  C58  1  0.47673000  0.85046000  0.69908000  1
  C  C59  1  0.71303000  0.84684000  0.47650000  1
  C  C60  1  0.63756000  0.80122000  0.55786000  1
  C  C61  1  0.65849000  0.75661000  0.52641000  1
  C  C62  1  0.66393000  0.84667000  0.53267000  1
  C  C63  1  0.29330000  0.97907000  0.69533000  1
  C  C64  1  0.35661000  0.92799000  0.68319000  1
  C  C65  1  0.70544000  0.75634000  0.46938000  1
  C  C66  1  0.06890000  0.02190000  0.97810000  1
  C  C67  1  0.97054000  0.74226000  0.00626000  1
  C  C68  1  0.97227000  0.75243000  0.06223000  1
  C  C69  1  0.97348000  0.71768000  0.90216000  1
  C  C70  1  0.98203000  0.70835000  0.75179000  1
  C  C71  1  0.01864000  0.44483000  0.80189000  1
  C  C72  1  0.02539000  0.38504000  0.79998000  1
  C  C73  1  0.91371000  0.77713000  0.98045000  1
  C  C74  1  0.99221000  0.61851000  0.79967000  1
  C  C75  1  0.97260000  0.73229000  0.79971000  1
  C  C76  1  0.98528000  0.64228000  0.84776000  1
  C  C77  1  0.99112000  0.65173000  0.75143000  1
  C  C78  1  0.91742000  0.76451000  0.92845000  1
  C  C79  1  0.97373000  0.69908000  0.85046000  1
  C  C80  1  0.96363000  0.47650000  0.84684000  1
  C  C81  1  0.00336000  0.55786000  0.80122000  1
  C  C82  1  0.05849000  0.52641000  0.75661000  1
  C  C83  1  0.95673000  0.53267000  0.84667000  1
  C  C84  1  0.03230000  0.69533000  0.97907000  1
  C  C85  1  0.03221000  0.68319000  0.92799000  1
  C  C86  1  0.06884000  0.46938000  0.75634000  1
  C  C87  1  0.93110000  0.97810000  0.02190000  1
  C  C88  1  0.97054000  0.00626000  0.74226000  1
  C  C89  1  0.97227000  0.06223000  0.75243000  1
  C  C90  1  0.97348000  0.90216000  0.71768000  1
  C  C91  1  0.98203000  0.75179000  0.70835000  1
  C  C92  1  0.01864000  0.80189000  0.44483000  1
  C  C93  1  0.02539000  0.79998000  0.38504000  1
  C  C94  1  0.91371000  0.98045000  0.77713000  1
  C  C95  1  0.99221000  0.79967000  0.61851000  1
  C  C96  1  0.97260000  0.79971000  0.73229000  1
  C  C97  1  0.98528000  0.84776000  0.64228000  1
  C  C98  1  0.99112000  0.75143000  0.65173000  1
  C  C99  1  0.91742000  0.92845000  0.76451000  1
  C  C100  1  0.97373000  0.85046000  0.69908000  1
  C  C101  1  0.96363000  0.84684000  0.47650000  1
  C  C102  1  0.00336000  0.80122000  0.55786000  1
  C  C103  1  0.05849000  0.75661000  0.52641000  1
  C  C104  1  0.95673000  0.84667000  0.53267000  1
  C  C105  1  0.03230000  0.97907000  0.69533000  1
  C  C106  1  0.03221000  0.92799000  0.68319000  1
  C  C107  1  0.06884000  0.75634000  0.46938000  1
  C  C108  1  0.28094000  0.74226000  0.00626000  1
  C  C109  1  0.21307000  0.75243000  0.06223000  1
  C  C110  1  0.40668000  0.71768000  0.90216000  1
  C  C111  1  0.55783000  0.70835000  0.75179000  1
  C  C112  1  0.73464000  0.44483000  0.80189000  1
  C  C113  1  0.78959000  0.38504000  0.79998000  1
  C  C114  1  0.32871000  0.77713000  0.98045000  1
  C  C115  1  0.58961000  0.61851000  0.79967000  1
  C  C116  1  0.49540000  0.73229000  0.79971000  1
  C  C117  1  0.52468000  0.64228000  0.84776000  1
  C  C118  1  0.60572000  0.65173000  0.75143000  1
  C  C119  1  0.38962000  0.76451000  0.92845000  1
  C  C120  1  0.47673000  0.69908000  0.85046000  1
  C  C121  1  0.71303000  0.47650000  0.84684000  1
  C  C122  1  0.63756000  0.55786000  0.80122000  1
  C  C123  1  0.65849000  0.52641000  0.75661000  1
  C  C124  1  0.66393000  0.53267000  0.84667000  1
  C  C125  1  0.29330000  0.69533000  0.97907000  1
  C  C126  1  0.35661000  0.68319000  0.92799000  1
  C  C127  1  0.70544000  0.46938000  0.75634000  1
  C  C128  1  0.71906000  0.99374000  0.25774000  1
  C  C129  1  0.78693000  0.93777000  0.24757000  1
  C  C130  1  0.59332000  0.09784000  0.28232000  1
  C  C131  1  0.44217000  0.24821000  0.29165000  1
  C  C132  1  0.26536000  0.19811000  0.55517000  1
  C  C133  1  0.21041000  0.20002000  0.61496000  1
  C  C134  1  0.67129000  0.01955000  0.22287000  1
  C  C135  1  0.41039000  0.20033000  0.38149000  1
  C  C136  1  0.50460000  0.20029000  0.26771000  1
  C  C137  1  0.47532000  0.15224000  0.35772000  1
  C  C138  1  0.39428000  0.24857000  0.34827000  1
  C  C139  1  0.61038000  0.07155000  0.23549000  1
  C  C140  1  0.52327000  0.14954000  0.30092000  1
  C  C141  1  0.28697000  0.15316000  0.52350000  1
  C  C142  1  0.36244000  0.19878000  0.44214000  1
  C  C143  1  0.34151000  0.24339000  0.47359000  1
  C  C144  1  0.33607000  0.15333000  0.46733000  1
  C  C145  1  0.70670000  0.02093000  0.30467000  1
  C  C146  1  0.64339000  0.07201000  0.31681000  1
  C  C147  1  0.29456000  0.24366000  0.53062000  1
  C  C148  1  0.02946000  0.25774000  0.99374000  1
  C  C149  1  0.02773000  0.24757000  0.93777000  1
  C  C150  1  0.02652000  0.28232000  0.09784000  1
  C  C151  1  0.01797000  0.29165000  0.24821000  1
  C  C152  1  0.98136000  0.55517000  0.19811000  1
  C  C153  1  0.97461000  0.61496000  0.20002000  1
  C  C154  1  0.08629000  0.22287000  0.01955000  1
  C  C155  1  0.00779000  0.38149000  0.20033000  1
  C  C156  1  0.02740000  0.26771000  0.20029000  1
  C  C157  1  0.01472000  0.35772000  0.15224000  1
  C  C158  1  0.00888000  0.34827000  0.24857000  1
  C  C159  1  0.08258000  0.23549000  0.07155000  1
  C  C160  1  0.02627000  0.30092000  0.14954000  1
  C  C161  1  0.03637000  0.52350000  0.15316000  1
  C  C162  1  0.99664000  0.44214000  0.19878000  1
  C  C163  1  0.94151000  0.47359000  0.24339000  1
  C  C164  1  0.04327000  0.46733000  0.15333000  1
  C  C165  1  0.96770000  0.30467000  0.02093000  1
  C  C166  1  0.96779000  0.31681000  0.07201000  1
  C  C167  1  0.93116000  0.53062000  0.24366000  1
  H  H168  1  0.12780000  0.00190000  0.19030000  1
  H  H169  1  0.01140000  0.11980000  0.38140000  1
  H  H170  1  0.00350000  0.28170000  0.36370000  1
  H  H171  1  0.12110000  0.08940000  0.21020000  1
  H  H172  1  0.06980000  0.12180000  0.54000000  1
  H  H173  1  0.90940000  0.27500000  0.45640000  1
  H  H174  1  0.08060000  0.12170000  0.44610000  1
  H  H175  1  0.92590000  0.00470000  0.32810000  1
  H  H176  1  0.92670000  0.08990000  0.34950000  1
  H  H177  1  0.89080000  0.27430000  0.55230000  1
  H  H178  1  0.11500000  0.96340000  0.03660000  1
  H  H179  1  0.03690000  0.18860000  0.18860000  1
  H  H180  1  0.68000000  0.19030000  0.00190000  1
  H  H181  1  0.48740000  0.38140000  0.11980000  1
  H  H182  1  0.35110000  0.36370000  0.28170000  1
  H  H183  1  0.57930000  0.21020000  0.08940000  1
  H  H184  1  0.26840000  0.54000000  0.12180000  1
  H  H185  1  0.35920000  0.45640000  0.27500000  1
  H  H186  1  0.35160000  0.44610000  0.12170000  1
  H  H187  1  0.74130000  0.32810000  0.00470000  1
  H  H188  1  0.63390000  0.34950000  0.08990000  1
  H  H189  1  0.28260000  0.55230000  0.27430000  1
  H  H190  1  0.88500000  0.03660000  0.96340000  1
  H  H191  1  0.58590000  0.18860000  0.18860000  1
  H  H192  1  0.32000000  0.99810000  0.80970000  1
  H  H193  1  0.51260000  0.88020000  0.61860000  1
  H  H194  1  0.64890000  0.71830000  0.63630000  1
  H  H195  1  0.42070000  0.91060000  0.78980000  1
  H  H196  1  0.73160000  0.87820000  0.46000000  1
  H  H197  1  0.64080000  0.72500000  0.54360000  1
  H  H198  1  0.64840000  0.87830000  0.55390000  1
  H  H199  1  0.25870000  0.99530000  0.67190000  1
  H  H200  1  0.36610000  0.91010000  0.65050000  1
  H  H201  1  0.71740000  0.72570000  0.44770000  1
  H  H202  1  0.11500000  0.03660000  0.96340000  1
  H  H203  1  0.41410000  0.81140000  0.81140000  1
  H  H204  1  0.87220000  0.80970000  0.99810000  1
  H  H205  1  0.98860000  0.61860000  0.88020000  1
  H  H206  1  0.99650000  0.63630000  0.71830000  1
  H  H207  1  0.87890000  0.78980000  0.91060000  1
  H  H208  1  0.93020000  0.46000000  0.87820000  1
  H  H209  1  0.09060000  0.54360000  0.72500000  1
  H  H210  1  0.91940000  0.55390000  0.87830000  1
  H  H211  1  0.07410000  0.67190000  0.99530000  1
  H  H212  1  0.07330000  0.65050000  0.91010000  1
  H  H213  1  0.10920000  0.44770000  0.72570000  1
  H  H214  1  0.88500000  0.96340000  0.03660000  1
  H  H215  1  0.96310000  0.81140000  0.81140000  1
  H  H216  1  0.87220000  0.99810000  0.80970000  1
  H  H217  1  0.98860000  0.88020000  0.61860000  1
  H  H218  1  0.99650000  0.71830000  0.63630000  1
  H  H219  1  0.87890000  0.91060000  0.78980000  1
  H  H220  1  0.93020000  0.87820000  0.46000000  1
  H  H221  1  0.09060000  0.72500000  0.54360000  1
  H  H222  1  0.91940000  0.87830000  0.55390000  1
  H  H223  1  0.07410000  0.99530000  0.67190000  1
  H  H224  1  0.07330000  0.91010000  0.65050000  1
  H  H225  1  0.10920000  0.72570000  0.44770000  1
  H  H226  1  0.32000000  0.80970000  0.99810000  1
  H  H227  1  0.51260000  0.61860000  0.88020000  1
  H  H228  1  0.64890000  0.63630000  0.71830000  1
  H  H229  1  0.42070000  0.78980000  0.91060000  1
  H  H230  1  0.73160000  0.46000000  0.87820000  1
  H  H231  1  0.64080000  0.54360000  0.72500000  1
  H  H232  1  0.64840000  0.55390000  0.87830000  1
  H  H233  1  0.25870000  0.67190000  0.99530000  1
  H  H234  1  0.36610000  0.65050000  0.91010000  1
  H  H235  1  0.71740000  0.44770000  0.72570000  1
  H  H236  1  0.68000000  0.00190000  0.19030000  1
  H  H237  1  0.48740000  0.11980000  0.38140000  1
  H  H238  1  0.35110000  0.28170000  0.36370000  1
  H  H239  1  0.57930000  0.08940000  0.21020000  1
  H  H240  1  0.26840000  0.12180000  0.54000000  1
  H  H241  1  0.35920000  0.27500000  0.45640000  1
  H  H242  1  0.35160000  0.12170000  0.44610000  1
  H  H243  1  0.74130000  0.00470000  0.32810000  1
  H  H244  1  0.63390000  0.08990000  0.34950000  1
  H  H245  1  0.28260000  0.27430000  0.55230000  1
  H  H246  1  0.12780000  0.19030000  0.00190000  1
  H  H247  1  0.01140000  0.38140000  0.11980000  1
  H  H248  1  0.00350000  0.36370000  0.28170000  1
  H  H249  1  0.12110000  0.21020000  0.08940000  1
  H  H250  1  0.06980000  0.54000000  0.12180000  1
  H  H251  1  0.90940000  0.45640000  0.27500000  1
  H  H252  1  0.08060000  0.44610000  0.12170000  1
  H  H253  1  0.92590000  0.32810000  0.00470000  1
  H  H254  1  0.92670000  0.34950000  0.08990000  1
  H  H255  1  0.89080000  0.55230000  0.27430000  1
  N  N256  1  0.03191000  0.21219000  0.21219000  1
  N  N257  1  0.54371000  0.21219000  0.21219000  1
  N  N258  1  0.45629000  0.78781000  0.78781000  1
  N  N259  1  0.96809000  0.78781000  0.78781000  1
  O  O260  1  0.97217000  0.91932000  0.28588000  1
  O  O261  1  0.07978000  0.91364000  0.20354000  1
  O  O262  1  0.02826000  0.16015000  0.63273000  1
  O  O263  1  0.06681000  0.81173000  0.25805000  1
  O  O264  1  0.92009000  0.24090000  0.64232000  1
  O  O265  1  0.07010000  0.89512000  0.10488000  1
  O  O266  1  0.96533000  0.86473000  0.20461000  1
  O  O267  1  0.96580000  0.75750000  0.31090000  1
  O  O268  1  0.82263000  0.28588000  0.91932000  1
  O  O269  1  0.80304000  0.20354000  0.91364000  1
  O  O270  1  0.17886000  0.63273000  0.16015000  1
  O  O271  1  0.86341000  0.25805000  0.81173000  1
  O  O272  1  0.19669000  0.64232000  0.24090000  1
  O  O273  1  0.92990000  0.10488000  0.89512000  1
  O  O274  1  0.96533000  0.20461000  0.86473000  1
  O  O275  1  0.96580000  0.31090000  0.75750000  1
  O  O276  1  0.17737000  0.08068000  0.71412000  1
  O  O277  1  0.19696000  0.08636000  0.79646000  1
  O  O278  1  0.82114000  0.83985000  0.36727000  1
  O  O279  1  0.13659000  0.18827000  0.74195000  1
  O  O280  1  0.80331000  0.75910000  0.35768000  1
  O  O281  1  0.07010000  0.10488000  0.89512000  1
  O  O282  1  0.03467000  0.13527000  0.79539000  1
  O  O283  1  0.03420000  0.24250000  0.68910000  1
  O  O284  1  0.02783000  0.71412000  0.08068000  1
  O  O285  1  0.92022000  0.79646000  0.08636000  1
  O  O286  1  0.97174000  0.36727000  0.83985000  1
  O  O287  1  0.93319000  0.74195000  0.18827000  1
  O  O288  1  0.07991000  0.35768000  0.75910000  1
  O  O289  1  0.92990000  0.89512000  0.10488000  1
  O  O290  1  0.03467000  0.79539000  0.13527000  1
  O  O291  1  0.03420000  0.68910000  0.24250000  1
  O  O292  1  0.02783000  0.08068000  0.71412000  1
  O  O293  1  0.92022000  0.08636000  0.79646000  1
  O  O294  1  0.97174000  0.83985000  0.36727000  1
  O  O295  1  0.93319000  0.18827000  0.74195000  1
  O  O296  1  0.07991000  0.75910000  0.35768000  1
  O  O297  1  0.17737000  0.71412000  0.08068000  1
  O  O298  1  0.19696000  0.79646000  0.08636000  1
  O  O299  1  0.82114000  0.36727000  0.83985000  1
  O  O300  1  0.13659000  0.74195000  0.18827000  1
  O  O301  1  0.80331000  0.35768000  0.75910000  1
  O  O302  1  0.82263000  0.91932000  0.28588000  1
  O  O303  1  0.80304000  0.91364000  0.20354000  1
  O  O304  1  0.17886000  0.16015000  0.63273000  1
  O  O305  1  0.86341000  0.81173000  0.25805000  1
  O  O306  1  0.19669000  0.24090000  0.64232000  1
  O  O307  1  0.97217000  0.28588000  0.91932000  1
  O  O308  1  0.07978000  0.20354000  0.91364000  1
  O  O309  1  0.02826000  0.63273000  0.16015000  1
  O  O310  1  0.06681000  0.25805000  0.81173000  1
  O  O311  1  0.92009000  0.64232000  0.24090000  1
  Zr  Zr312  1  0.09898000  0.83087000  0.16913000  1
  Zr  Zr313  1  0.09993000  0.72335000  0.27665000  1
  Zr  Zr314  1  0.92921000  0.84741000  0.29417000  1
  Zr  Zr315  1  0.90102000  0.16913000  0.83087000  1
  Zr  Zr316  1  0.90007000  0.27665000  0.72335000  1
  Zr  Zr317  1  0.92921000  0.29417000  0.84741000  1
  Zr  Zr318  1  0.09898000  0.16913000  0.83087000  1
  Zr  Zr319  1  0.09993000  0.27665000  0.72335000  1
  Zr  Zr320  1  0.07079000  0.15259000  0.70583000  1
  Zr  Zr321  1  0.90102000  0.83087000  0.16913000  1
  Zr  Zr322  1  0.90007000  0.72335000  0.27665000  1
  Zr  Zr323  1  0.07079000  0.70583000  0.15259000  1
