# generated using pymatgen
data_Zr6H56C105(NO16)2
_symmetry_space_group_name_H-M   'P 1'
_cell_length_a   18.96510000
_cell_length_b   25.47466457
_cell_length_c   25.47466457
_cell_angle_alpha   82.33071014
_cell_angle_beta   68.14650680
_cell_angle_gamma   68.14650680
_symmetry_Int_Tables_number   1
_chemical_formula_structural   Zr6H56C105(NO16)2
_chemical_formula_sum   'Zr12 H112 C210 N4 O64'
_cell_volume   10602.05927551
_cell_formula_units_Z   2
loop_
 _symmetry_equiv_pos_site_id
 _symmetry_equiv_pos_as_xyz
  1  'x, y, z'
loop_
 _atom_site_type_symbol
 _atom_site_label
 _atom_site_symmetry_multiplicity
 _atom_site_fract_x
 _atom_site_fract_y
 _atom_site_fract_z
 _atom_site_occupancy
  C  C0  1  0.97956000  0.75387000  0.05581000  1
  C  C1  1  0.97533000  0.74359000  0.00075000  1
  C  C2  1  0.98424000  0.64973000  0.74919000  1
  C  C3  1  0.96990000  0.69943000  0.84697000  1
  C  C4  1  0.97572000  0.70641000  0.74895000  1
  C  C5  1  0.91968000  0.77938000  0.98026000  1
  C  C6  1  0.03125667  0.68214000  0.92198000  1
  C  C7  1  0.92134000  0.76536000  0.92516000  1
  C  C8  1  0.97831000  0.64259000  0.84499000  1
  C  C9  1  0.98439000  0.61799000  0.79683000  1
  C  C10  1  0.97456000  0.71762000  0.89766000  1
  C  C11  1  0.96702000  0.73127000  0.79849000  1
  C  C12  1  0.99330000  0.55683000  0.79957000  1
  C  C13  1  0.04680000  0.52162000  0.75378000  1
  C  C14  1  0.95794000  0.47777000  0.85015000  1
  C  C15  1  0.05605000  0.46405000  0.75645000  1
  C  C16  1  0.94886000  0.53443000  0.84745000  1
  C  C17  1  0.01223000  0.44237000  0.80417000  1
  C  C18  1  0.01698000  0.38249000  0.80515000  1
  C  C19  1  0.03360000  0.69432000  0.97088000  1
  C  C20  1  0.93620000  0.97916000  0.02084000  1
  C  C21  1  0.76520000  0.78191000  0.21809000  1
  C  C22  1  0.68700000  0.78145000  0.21855000  1
  C  C23  1  0.53940000  0.78190000  0.21810000  1
  C  C24  1  0.64980000  0.81700000  0.18300000  1
  C  C25  1  0.57720000  0.74760000  0.25240000  1
  C  C26  1  0.65030000  0.74732000  0.25268000  1
  C  C27  1  0.57590000  0.81800000  0.18200000  1
  C  C28  1  0.93830000  0.58502000  0.41498000  1
  C  C29  1  0.93930000  0.54313000  0.45687000  1
  C  C30  1  0.00000000  0.91411000  0.08589000  1
  C  C31  1  0.00000000  0.65010000  0.34990000  1
  C  C32  1  0.00000000  0.95860000  0.04140000  1
  C  C33  1  0.00000000  0.60570000  0.39430000  1
  C  C34  1  0.00000000  0.52260000  0.47740000  1
  C  C35  1  0.02044000  0.94419000  0.24613000  1
  C  C36  1  0.02467000  0.99925000  0.25641000  1
  C  C37  1  0.01576000  0.25081000  0.35027000  1
  C  C38  1  0.03010000  0.15303000  0.30057000  1
  C  C39  1  0.02428000  0.25105000  0.29359000  1
  C  C40  1  0.08032000  0.01974000  0.22062000  1
  C  C41  1  0.96874333  0.07802000  0.31786000  1
  C  C42  1  0.07866000  0.07484000  0.23464000  1
  C  C43  1  0.02169000  0.15501000  0.35741000  1
  C  C44  1  0.01561000  0.20317000  0.38201000  1
  C  C45  1  0.02544000  0.10234000  0.28238000  1
  C  C46  1  0.03298000  0.20151000  0.26873000  1
  C  C47  1  0.00670000  0.20043000  0.44317000  1
  C  C48  1  0.95320000  0.24622000  0.47838000  1
  C  C49  1  0.04206000  0.14985000  0.52223000  1
  C  C50  1  0.94395000  0.24355000  0.53595000  1
  C  C51  1  0.05114000  0.15255000  0.46557000  1
  C  C52  1  0.98777000  0.19583000  0.55763000  1
  C  C53  1  0.98302000  0.19485000  0.61751000  1
  C  C54  1  0.96640000  0.02912000  0.30568000  1
  C  C55  1  0.06380000  0.97916000  0.02084000  1
  C  C56  1  0.23480000  0.78191000  0.21809000  1
  C  C57  1  0.31300000  0.78145000  0.21855000  1
  C  C58  1  0.46060000  0.78190000  0.21810000  1
  C  C59  1  0.35020000  0.81700000  0.18300000  1
  C  C60  1  0.42280000  0.74760000  0.25240000  1
  C  C61  1  0.34970000  0.74732000  0.25268000  1
  C  C62  1  0.42410000  0.81800000  0.18200000  1
  C  C63  1  0.06170000  0.58502000  0.41498000  1
  C  C64  1  0.06070000  0.54313000  0.45687000  1
  C  C65  1  0.78924000  0.24613000  0.94419000  1
  C  C66  1  0.71967000  0.25641000  0.99925000  1
  C  C67  1  0.38316000  0.35027000  0.25081000  1
  C  C68  1  0.51630000  0.30057000  0.15303000  1
  C  C69  1  0.43108000  0.29359000  0.25105000  1
  C  C70  1  0.67932000  0.22062000  0.01974000  1
  C  C71  1  0.63537667  0.31786000  0.07802000  1
  C  C72  1  0.61186000  0.23464000  0.07484000  1
  C  C73  1  0.46589000  0.35741000  0.15501000  1
  C  C74  1  0.39921000  0.38201000  0.20317000  1
  C  C75  1  0.58984000  0.28238000  0.10234000  1
  C  C76  1  0.49678000  0.26873000  0.20151000  1
  C  C77  1  0.34970000  0.44317000  0.20043000  1
  C  C78  1  0.32220000  0.47838000  0.24622000  1
  C  C79  1  0.28586000  0.52223000  0.14985000  1
  C  C80  1  0.27655000  0.53595000  0.24355000  1
  C  C81  1  0.33074000  0.46557000  0.15255000  1
  C  C82  1  0.25877000  0.55763000  0.19583000  1
  C  C83  1  0.20462000  0.61751000  0.19485000  1
  C  C84  1  0.69880000  0.30568000  0.02912000  1
  C  C85  1  0.93620000  0.02084000  0.97916000  1
  C  C86  1  0.76520000  0.21809000  0.78191000  1
  C  C87  1  0.68700000  0.21855000  0.78145000  1
  C  C88  1  0.53940000  0.21810000  0.78190000  1
  C  C89  1  0.64980000  0.18300000  0.81700000  1
  C  C90  1  0.57720000  0.25240000  0.74760000  1
  C  C91  1  0.65030000  0.25268000  0.74732000  1
  C  C92  1  0.57590000  0.18200000  0.81800000  1
  C  C93  1  0.93830000  0.41498000  0.58502000  1
  C  C94  1  0.93930000  0.45687000  0.54313000  1
  C  C95  1  0.00000000  0.08589000  0.91411000  1
  C  C96  1  0.00000000  0.34990000  0.65010000  1
  C  C97  1  0.00000000  0.04140000  0.95860000  1
  C  C98  1  0.00000000  0.39430000  0.60570000  1
  C  C99  1  0.00000000  0.47740000  0.52260000  1
  C  C100  1  0.21076000  0.05581000  0.75387000  1
  C  C101  1  0.28033000  0.00075000  0.74359000  1
  C  C102  1  0.61684000  0.74919000  0.64973000  1
  C  C103  1  0.48370000  0.84697000  0.69943000  1
  C  C104  1  0.56892000  0.74895000  0.70641000  1
  C  C105  1  0.32068000  0.98026000  0.77938000  1
  C  C106  1  0.36462333  0.92198000  0.68214000  1
  C  C107  1  0.38814000  0.92516000  0.76536000  1
  C  C108  1  0.53411000  0.84499000  0.64259000  1
  C  C109  1  0.60079000  0.79683000  0.61799000  1
  C  C110  1  0.41016000  0.89766000  0.71762000  1
  C  C111  1  0.50322000  0.79849000  0.73127000  1
  C  C112  1  0.65030000  0.79957000  0.55683000  1
  C  C113  1  0.67780000  0.75378000  0.52162000  1
  C  C114  1  0.71414000  0.85015000  0.47777000  1
  C  C115  1  0.72345000  0.75645000  0.46405000  1
  C  C116  1  0.66926000  0.84745000  0.53443000  1
  C  C117  1  0.74123000  0.80417000  0.44237000  1
  C  C118  1  0.79538000  0.80515000  0.38249000  1
  C  C119  1  0.30120000  0.97088000  0.69432000  1
  C  C120  1  0.06380000  0.02084000  0.97916000  1
  C  C121  1  0.23480000  0.21809000  0.78191000  1
  C  C122  1  0.31300000  0.21855000  0.78145000  1
  C  C123  1  0.46060000  0.21810000  0.78190000  1
  C  C124  1  0.35020000  0.18300000  0.81700000  1
  C  C125  1  0.42280000  0.25240000  0.74760000  1
  C  C126  1  0.34970000  0.25268000  0.74732000  1
  C  C127  1  0.42410000  0.18200000  0.81800000  1
  C  C128  1  0.06170000  0.41498000  0.58502000  1
  C  C129  1  0.06070000  0.45687000  0.54313000  1
  C  C130  1  0.02044000  0.24613000  0.94419000  1
  C  C131  1  0.02467000  0.25641000  0.99925000  1
  C  C132  1  0.01576000  0.35027000  0.25081000  1
  C  C133  1  0.03010000  0.30057000  0.15303000  1
  C  C134  1  0.02428000  0.29359000  0.25105000  1
  C  C135  1  0.08032000  0.22062000  0.01974000  1
  C  C136  1  0.96874333  0.31786000  0.07802000  1
  C  C137  1  0.07866000  0.23464000  0.07484000  1
  C  C138  1  0.02169000  0.35741000  0.15501000  1
  C  C139  1  0.01561000  0.38201000  0.20317000  1
  C  C140  1  0.02544000  0.28238000  0.10234000  1
  C  C141  1  0.03298000  0.26873000  0.20151000  1
  C  C142  1  0.00670000  0.44317000  0.20043000  1
  C  C143  1  0.95320000  0.47838000  0.24622000  1
  C  C144  1  0.04206000  0.52223000  0.14985000  1
  C  C145  1  0.94395000  0.53595000  0.24355000  1
  C  C146  1  0.05114000  0.46557000  0.15255000  1
  C  C147  1  0.98777000  0.55763000  0.19583000  1
  C  C148  1  0.98302000  0.61751000  0.19485000  1
  C  C149  1  0.96640000  0.30568000  0.02912000  1
  C  C150  1  0.97956000  0.05581000  0.75387000  1
  C  C151  1  0.97533000  0.00075000  0.74359000  1
  C  C152  1  0.98424000  0.74919000  0.64973000  1
  C  C153  1  0.96990000  0.84697000  0.69943000  1
  C  C154  1  0.97572000  0.74895000  0.70641000  1
  C  C155  1  0.91968000  0.98026000  0.77938000  1
  C  C156  1  0.03125667  0.92198000  0.68214000  1
  C  C157  1  0.92134000  0.92516000  0.76536000  1
  C  C158  1  0.97831000  0.84499000  0.64259000  1
  C  C159  1  0.98439000  0.79683000  0.61799000  1
  C  C160  1  0.97456000  0.89766000  0.71762000  1
  C  C161  1  0.96702000  0.79849000  0.73127000  1
  C  C162  1  0.99330000  0.79957000  0.55683000  1
  C  C163  1  0.04680000  0.75378000  0.52162000  1
  C  C164  1  0.95794000  0.85015000  0.47777000  1
  C  C165  1  0.05605000  0.75645000  0.46405000  1
  C  C166  1  0.94886000  0.84745000  0.53443000  1
  C  C167  1  0.01223000  0.80417000  0.44237000  1
  C  C168  1  0.01698000  0.80515000  0.38249000  1
  C  C169  1  0.03360000  0.97088000  0.69432000  1
  C  C170  1  0.21076000  0.75387000  0.05581000  1
  C  C171  1  0.28033000  0.74359000  0.00075000  1
  C  C172  1  0.61684000  0.64973000  0.74919000  1
  C  C173  1  0.48370000  0.69943000  0.84697000  1
  C  C174  1  0.56892000  0.70641000  0.74895000  1
  C  C175  1  0.32068000  0.77938000  0.98026000  1
  C  C176  1  0.36462333  0.68214000  0.92198000  1
  C  C177  1  0.38814000  0.76536000  0.92516000  1
  C  C178  1  0.53411000  0.64259000  0.84499000  1
  C  C179  1  0.60079000  0.61799000  0.79683000  1
  C  C180  1  0.41016000  0.71762000  0.89766000  1
  C  C181  1  0.50322000  0.73127000  0.79849000  1
  C  C182  1  0.65030000  0.55683000  0.79957000  1
  C  C183  1  0.67780000  0.52162000  0.75378000  1
  C  C184  1  0.71414000  0.47777000  0.85015000  1
  C  C185  1  0.72345000  0.46405000  0.75645000  1
  C  C186  1  0.66926000  0.53443000  0.84745000  1
  C  C187  1  0.74123000  0.44237000  0.80417000  1
  C  C188  1  0.79538000  0.38249000  0.80515000  1
  C  C189  1  0.30120000  0.69432000  0.97088000  1
  C  C190  1  0.78924000  0.94419000  0.24613000  1
  C  C191  1  0.71967000  0.99925000  0.25641000  1
  C  C192  1  0.38316000  0.25081000  0.35027000  1
  C  C193  1  0.51630000  0.15303000  0.30057000  1
  C  C194  1  0.43108000  0.25105000  0.29359000  1
  C  C195  1  0.67932000  0.01974000  0.22062000  1
  C  C196  1  0.63537667  0.07802000  0.31786000  1
  C  C197  1  0.61186000  0.07484000  0.23464000  1
  C  C198  1  0.46589000  0.15501000  0.35741000  1
  C  C199  1  0.39921000  0.20317000  0.38201000  1
  C  C200  1  0.58984000  0.10234000  0.28238000  1
  C  C201  1  0.49678000  0.20151000  0.26873000  1
  C  C202  1  0.34970000  0.20043000  0.44317000  1
  C  C203  1  0.32220000  0.24622000  0.47838000  1
  C  C204  1  0.28586000  0.14985000  0.52223000  1
  C  C205  1  0.27655000  0.24355000  0.53595000  1
  C  C206  1  0.33074000  0.15255000  0.46557000  1
  C  C207  1  0.25877000  0.19583000  0.55763000  1
  C  C208  1  0.20462000  0.19485000  0.61751000  1
  C  C209  1  0.69880000  0.02912000  0.30568000  1
  H  H210  1  0.99000000  0.63300000  0.71600000  1
  H  H211  1  0.88030000  0.81280000  0.00040000  1
  H  H212  1  0.06970000  0.64790000  0.90290000  1
  H  H213  1  0.88370000  0.79090000  0.90910000  1
  H  H214  1  0.97990000  0.62000000  0.87760000  1
  H  H215  1  0.07730000  0.53630000  0.72050000  1
  H  H216  1  0.92730000  0.46310000  0.88330000  1
  H  H217  1  0.09290000  0.44000000  0.72500000  1
  H  H218  1  0.91150000  0.55850000  0.87890000  1
  H  H219  1  0.07430000  0.66990000  0.98510000  1
  H  H220  1  0.89290000  0.96490000  0.03510000  1
  H  H221  1  0.67520000  0.84140000  0.15860000  1
  H  H222  1  0.55270000  0.72290000  0.27710000  1
  H  H223  1  0.67470000  0.72260000  0.27740000  1
  H  H224  1  0.55130000  0.84270000  0.15730000  1
  H  H225  1  0.89460000  0.59890000  0.40110000  1
  H  H226  1  0.89590000  0.52900000  0.47100000  1
  H  H227  1  0.96190000  0.81050000  0.81050000  1
  H  H228  1  0.01000000  0.28400000  0.36700000  1
  H  H229  1  0.11970000  0.99960000  0.18720000  1
  H  H230  1  0.93030000  0.09710000  0.35210000  1
  H  H231  1  0.11630000  0.09090000  0.20910000  1
  H  H232  1  0.02010000  0.12240000  0.38000000  1
  H  H233  1  0.92270000  0.27950000  0.46370000  1
  H  H234  1  0.07270000  0.11670000  0.53690000  1
  H  H235  1  0.90710000  0.27500000  0.56000000  1
  H  H236  1  0.08850000  0.12110000  0.44150000  1
  H  H237  1  0.92570000  0.01490000  0.33010000  1
  H  H238  1  0.10710000  0.96490000  0.03510000  1
  H  H239  1  0.32480000  0.84140000  0.15860000  1
  H  H240  1  0.44730000  0.72290000  0.27710000  1
  H  H241  1  0.32530000  0.72260000  0.27740000  1
  H  H242  1  0.44870000  0.84270000  0.15730000  1
  H  H243  1  0.10540000  0.59890000  0.40110000  1
  H  H244  1  0.10410000  0.52900000  0.47100000  1
  H  H245  1  0.03810000  0.18950000  0.18950000  1
  H  H246  1  0.33900000  0.36700000  0.28400000  1
  H  H247  1  0.69350000  0.18720000  0.99960000  1
  H  H248  1  0.62050000  0.35210000  0.09710000  1
  H  H249  1  0.58370000  0.20910000  0.09090000  1
  H  H250  1  0.47750000  0.38000000  0.12240000  1
  H  H251  1  0.33410000  0.46370000  0.27950000  1
  H  H252  1  0.27370000  0.53690000  0.11670000  1
  H  H253  1  0.25790000  0.56000000  0.27500000  1
  H  H254  1  0.34890000  0.44150000  0.12110000  1
  H  H255  1  0.72930000  0.33010000  0.01490000  1
  H  H256  1  0.89290000  0.03510000  0.96490000  1
  H  H257  1  0.67520000  0.15860000  0.84140000  1
  H  H258  1  0.55270000  0.27710000  0.72290000  1
  H  H259  1  0.67470000  0.27740000  0.72260000  1
  H  H260  1  0.55130000  0.15730000  0.84270000  1
  H  H261  1  0.89460000  0.40110000  0.59890000  1
  H  H262  1  0.89590000  0.47100000  0.52900000  1
  H  H263  1  0.58290000  0.18950000  0.18950000  1
  H  H264  1  0.66100000  0.71600000  0.63300000  1
  H  H265  1  0.30650000  0.00040000  0.81280000  1
  H  H266  1  0.37950000  0.90290000  0.64790000  1
  H  H267  1  0.41630000  0.90910000  0.79090000  1
  H  H268  1  0.52250000  0.87760000  0.62000000  1
  H  H269  1  0.66590000  0.72050000  0.53630000  1
  H  H270  1  0.72630000  0.88330000  0.46310000  1
  H  H271  1  0.74210000  0.72500000  0.44000000  1
  H  H272  1  0.65110000  0.87890000  0.55850000  1
  H  H273  1  0.27070000  0.98510000  0.66990000  1
  H  H274  1  0.10710000  0.03510000  0.96490000  1
  H  H275  1  0.32480000  0.15860000  0.84140000  1
  H  H276  1  0.44730000  0.27710000  0.72290000  1
  H  H277  1  0.32530000  0.27740000  0.72260000  1
  H  H278  1  0.44870000  0.15730000  0.84270000  1
  H  H279  1  0.10540000  0.40110000  0.59890000  1
  H  H280  1  0.10410000  0.47100000  0.52900000  1
  H  H281  1  0.41710000  0.81050000  0.81050000  1
  H  H282  1  0.01000000  0.36700000  0.28400000  1
  H  H283  1  0.11970000  0.18720000  0.99960000  1
  H  H284  1  0.93030000  0.35210000  0.09710000  1
  H  H285  1  0.11630000  0.20910000  0.09090000  1
  H  H286  1  0.02010000  0.38000000  0.12240000  1
  H  H287  1  0.92270000  0.46370000  0.27950000  1
  H  H288  1  0.07270000  0.53690000  0.11670000  1
  H  H289  1  0.90710000  0.56000000  0.27500000  1
  H  H290  1  0.08850000  0.44150000  0.12110000  1
  H  H291  1  0.92570000  0.33010000  0.01490000  1
  H  H292  1  0.99000000  0.71600000  0.63300000  1
  H  H293  1  0.88030000  0.00040000  0.81280000  1
  H  H294  1  0.06970000  0.90290000  0.64790000  1
  H  H295  1  0.88370000  0.90910000  0.79090000  1
  H  H296  1  0.97990000  0.87760000  0.62000000  1
  H  H297  1  0.07730000  0.72050000  0.53630000  1
  H  H298  1  0.92730000  0.88330000  0.46310000  1
  H  H299  1  0.09290000  0.72500000  0.44000000  1
  H  H300  1  0.91150000  0.87890000  0.55850000  1
  H  H301  1  0.07430000  0.98510000  0.66990000  1
  H  H302  1  0.66100000  0.63300000  0.71600000  1
  H  H303  1  0.30650000  0.81280000  0.00040000  1
  H  H304  1  0.37950000  0.64790000  0.90290000  1
  H  H305  1  0.41630000  0.79090000  0.90910000  1
  H  H306  1  0.52250000  0.62000000  0.87760000  1
  H  H307  1  0.66590000  0.53630000  0.72050000  1
  H  H308  1  0.72630000  0.46310000  0.88330000  1
  H  H309  1  0.74210000  0.44000000  0.72500000  1
  H  H310  1  0.65110000  0.55850000  0.87890000  1
  H  H311  1  0.27070000  0.66990000  0.98510000  1
  H  H312  1  0.33900000  0.28400000  0.36700000  1
  H  H313  1  0.69350000  0.99960000  0.18720000  1
  H  H314  1  0.62050000  0.09710000  0.35210000  1
  H  H315  1  0.58370000  0.09090000  0.20910000  1
  H  H316  1  0.47750000  0.12240000  0.38000000  1
  H  H317  1  0.33410000  0.27950000  0.46370000  1
  H  H318  1  0.27370000  0.11670000  0.53690000  1
  H  H319  1  0.25790000  0.27500000  0.56000000  1
  H  H320  1  0.34890000  0.12110000  0.44150000  1
  H  H321  1  0.72930000  0.01490000  0.33010000  1
  N  N322  1  0.96458000  0.78692000  0.78692000  1
  N  N323  1  0.03542000  0.21308000  0.21308000  1
  N  N324  1  0.53842000  0.21308000  0.21308000  1
  N  N325  1  0.46158000  0.78692000  0.78692000  1
  O  O326  1  0.94568000  0.74500000  0.18080000  1
  O  O327  1  0.92337000  0.80140000  0.08346000  1
  O  O328  1  0.03603000  0.71550000  0.07142000  1
  O  O329  1  0.96497000  0.36699000  0.84669000  1
  O  O330  1  0.07626000  0.35112000  0.76280000  1
  O  O331  1  0.93913000  0.89751000  0.10249000  1
  O  O332  1  0.94083000  0.66644000  0.33356000  1
  O  O333  1  0.79578000  0.81626000  0.18374000  1
  O  O334  1  0.79471000  0.74813000  0.25187000  1
  O  O335  1  0.03651000  0.69364000  0.23334000  1
  O  O336  1  0.03714000  0.79620667  0.12951333  1
  O  O337  1  0.05432000  0.81920000  0.25500000  1
  O  O338  1  0.07663000  0.91654000  0.19860000  1
  O  O339  1  0.96397000  0.92858000  0.28450000  1
  O  O340  1  0.03503000  0.15331000  0.63301000  1
  O  O341  1  0.92374000  0.23720000  0.64888000  1
  O  O342  1  0.06087000  0.89751000  0.10249000  1
  O  O343  1  0.05917000  0.66644000  0.33356000  1
  O  O344  1  0.20422000  0.81626000  0.18374000  1
  O  O345  1  0.20529000  0.74813000  0.25187000  1
  O  O346  1  0.96349000  0.76666000  0.30636000  1
  O  O347  1  0.96286000  0.87048667  0.20379333  1
  O  O348  1  0.87148000  0.25500000  0.81920000  1
  O  O349  1  0.80823000  0.19860000  0.91654000  1
  O  O350  1  0.82295000  0.28450000  0.92858000  1
  O  O351  1  0.17865000  0.63301000  0.15331000  1
  O  O352  1  0.19018000  0.64888000  0.23720000  1
  O  O353  1  0.93913000  0.10249000  0.89751000  1
  O  O354  1  0.94083000  0.33356000  0.66644000  1
  O  O355  1  0.79578000  0.18374000  0.81626000  1
  O  O356  1  0.79471000  0.25187000  0.74813000  1
  O  O357  1  0.96349000  0.30636000  0.76666000  1
  O  O358  1  0.96286000  0.20379333  0.87048667  1
  O  O359  1  0.12852000  0.18080000  0.74500000  1
  O  O360  1  0.19177000  0.08346000  0.80140000  1
  O  O361  1  0.17705000  0.07142000  0.71550000  1
  O  O362  1  0.82135000  0.84669000  0.36699000  1
  O  O363  1  0.80982000  0.76280000  0.35112000  1
  O  O364  1  0.06087000  0.10249000  0.89751000  1
  O  O365  1  0.05917000  0.33356000  0.66644000  1
  O  O366  1  0.20422000  0.18374000  0.81626000  1
  O  O367  1  0.20529000  0.25187000  0.74813000  1
  O  O368  1  0.03651000  0.23334000  0.69364000  1
  O  O369  1  0.03714000  0.12951333  0.79620667  1
  O  O370  1  0.05432000  0.25500000  0.81920000  1
  O  O371  1  0.07663000  0.19860000  0.91654000  1
  O  O372  1  0.96397000  0.28450000  0.92858000  1
  O  O373  1  0.03503000  0.63301000  0.15331000  1
  O  O374  1  0.92374000  0.64888000  0.23720000  1
  O  O375  1  0.94568000  0.18080000  0.74500000  1
  O  O376  1  0.92337000  0.08346000  0.80140000  1
  O  O377  1  0.03603000  0.07142000  0.71550000  1
  O  O378  1  0.96497000  0.84669000  0.36699000  1
  O  O379  1  0.07626000  0.76280000  0.35112000  1
  O  O380  1  0.12852000  0.74500000  0.18080000  1
  O  O381  1  0.19177000  0.80140000  0.08346000  1
  O  O382  1  0.17705000  0.71550000  0.07142000  1
  O  O383  1  0.82135000  0.36699000  0.84669000  1
  O  O384  1  0.80982000  0.35112000  0.76280000  1
  O  O385  1  0.87148000  0.81920000  0.25500000  1
  O  O386  1  0.80823000  0.91654000  0.19860000  1
  O  O387  1  0.82295000  0.92858000  0.28450000  1
  O  O388  1  0.17865000  0.15331000  0.63301000  1
  O  O389  1  0.19018000  0.23720000  0.64888000  1
  Zr  Zr390  1  0.90738000  0.72998000  0.27002000  1
  Zr  Zr391  1  0.90729000  0.83415000  0.16585000  1
  Zr  Zr392  1  0.07421000  0.70735000  0.14423000  1
  Zr  Zr393  1  0.09262000  0.72998000  0.27002000  1
  Zr  Zr394  1  0.09271000  0.83415000  0.16585000  1
  Zr  Zr395  1  0.92579000  0.85577000  0.29265000  1
  Zr  Zr396  1  0.90738000  0.27002000  0.72998000  1
  Zr  Zr397  1  0.90729000  0.16585000  0.83415000  1
  Zr  Zr398  1  0.92579000  0.29265000  0.85577000  1
  Zr  Zr399  1  0.09262000  0.27002000  0.72998000  1
  Zr  Zr400  1  0.09271000  0.16585000  0.83415000  1
  Zr  Zr401  1  0.07421000  0.14423000  0.70735000  1
