# generated using pymatgen
data_Zr3H21C40NO12
_symmetry_space_group_name_H-M   'P 1'
_cell_length_a   18.56900000
_cell_length_b   25.38899375
_cell_length_c   25.38899375
_cell_angle_alpha   78.72135135
_cell_angle_beta   68.54995007
_cell_angle_gamma   68.54995007
_symmetry_Int_Tables_number   1
_chemical_formula_structural   Zr3H21C40NO12
_chemical_formula_sum   'Zr12 H84 C160 N4 O48'
_cell_volume   10342.44843637
_cell_formula_units_Z   4
loop_
 _symmetry_equiv_pos_site_id
 _symmetry_equiv_pos_as_xyz
  1  'x, y, z'
loop_
 _atom_site_type_symbol
 _atom_site_label
 _atom_site_symmetry_multiplicity
 _atom_site_fract_x
 _atom_site_fract_y
 _atom_site_fract_z
 _atom_site_occupancy
  C  C0  1  0.97708000  0.05594000  0.75690000  1
  C  C1  1  0.97204000  0.00233000  0.74459000  1
  C  C2  1  0.91901000  0.97563000  0.77815000  1
  C  C3  1  0.97407000  0.79909000  0.72957000  1
  C  C4  1  0.97505000  0.90150000  0.71420000  1
  C  C5  1  0.05229000  0.75757000  0.52265000  1
  C  C6  1  0.01954000  0.80393000  0.38099000  1
  C  C7  1  0.97962000  0.75114000  0.70622000  1
  C  C8  1  0.91929000  0.92542000  0.76460000  1
  C  C9  1  0.99931000  0.80320000  0.55418000  1
  C  C10  1  0.98625000  0.75190000  0.64940000  1
  C  C11  1  0.02714000  0.92828000  0.67944000  1
  C  C12  1  0.02967000  0.97874000  0.69332000  1
  C  C13  1  0.01590000  0.80531000  0.44029000  1
  C  C14  1  0.06068000  0.75940000  0.46584000  1
  C  C15  1  0.98883000  0.80103000  0.61491000  1
  C  C16  1  0.98170000  0.84879000  0.63881000  1
  C  C17  1  0.97528000  0.84934000  0.69550000  1
  C  C18  1  0.95972000  0.84947000  0.52749000  1
  C  C19  1  0.96434000  0.85038000  0.47114000  1
  C  C20  1  0.02292000  0.24310000  0.94406000  1
  C  C21  1  0.02796000  0.25541000  0.99767000  1
  C  C22  1  0.08099000  0.22185000  0.02437000  1
  C  C23  1  0.02593000  0.27043000  0.20091000  1
  C  C24  1  0.02495000  0.28580000  0.09850000  1
  C  C25  1  0.94771000  0.47735000  0.24243000  1
  C  C26  1  0.98046000  0.61901000  0.19607000  1
  C  C27  1  0.02038000  0.29378000  0.24886000  1
  C  C28  1  0.08071000  0.23540000  0.07458000  1
  C  C29  1  0.00069000  0.44582000  0.19680000  1
  C  C30  1  0.01375000  0.35060000  0.24810000  1
  C  C31  1  0.97286000  0.32056000  0.07172000  1
  C  C32  1  0.97033000  0.30668000  0.02126000  1
  C  C33  1  0.98410000  0.55971000  0.19469000  1
  C  C34  1  0.93932000  0.53416000  0.24060000  1
  C  C35  1  0.01117000  0.38509000  0.19897000  1
  C  C36  1  0.01830000  0.36119000  0.15121000  1
  C  C37  1  0.02472000  0.30450000  0.15066000  1
  C  C38  1  0.04028000  0.47251000  0.15053000  1
  C  C39  1  0.03566000  0.52886000  0.14962000  1
  C  C40  1  0.78992000  0.94406000  0.24310000  1
  C  C41  1  0.71896000  0.99767000  0.25541000  1
  C  C42  1  0.67279000  0.02437000  0.22185000  1
  C  C43  1  0.50273000  0.20091000  0.27043000  1
  C  C44  1  0.59075000  0.09850000  0.28580000  1
  C  C45  1  0.33251000  0.24243000  0.47735000  1
  C  C46  1  0.20446000  0.19607000  0.61901000  1
  C  C47  1  0.43698000  0.24886000  0.29378000  1
  C  C48  1  0.60931000  0.07458000  0.23540000  1
  C  C49  1  0.35669000  0.19680000  0.44582000  1
  C  C50  1  0.38755000  0.24810000  0.35060000  1
  C  C51  1  0.63486000  0.07172000  0.32056000  1
  C  C52  1  0.70173000  0.02126000  0.30668000  1
  C  C53  1  0.26150000  0.19469000  0.55971000  1
  C  C54  1  0.28592000  0.24060000  0.53416000  1
  C  C55  1  0.40477000  0.19897000  0.38509000  1
  C  C56  1  0.46930000  0.15121000  0.36119000  1
  C  C57  1  0.52012000  0.15066000  0.30450000  1
  C  C58  1  0.33668000  0.15053000  0.47251000  1
  C  C59  1  0.28586000  0.14962000  0.52886000  1
  C  C60  1  0.21008000  0.75690000  0.05594000  1
  C  C61  1  0.28104000  0.74459000  0.00233000  1
  C  C62  1  0.32721000  0.77815000  0.97563000  1
  C  C63  1  0.49727000  0.72957000  0.79909000  1
  C  C64  1  0.40925000  0.71420000  0.90150000  1
  C  C65  1  0.66749000  0.52265000  0.75757000  1
  C  C66  1  0.79554000  0.38099000  0.80393000  1
  C  C67  1  0.56302000  0.70622000  0.75114000  1
  C  C68  1  0.39069000  0.76460000  0.92542000  1
  C  C69  1  0.64331000  0.55418000  0.80320000  1
  C  C70  1  0.61245000  0.64940000  0.75190000  1
  C  C71  1  0.36514000  0.67944000  0.92828000  1
  C  C72  1  0.29827000  0.69332000  0.97874000  1
  C  C73  1  0.73850000  0.44029000  0.80531000  1
  C  C74  1  0.71408000  0.46584000  0.75940000  1
  C  C75  1  0.59523000  0.61491000  0.80103000  1
  C  C76  1  0.53070000  0.63881000  0.84879000  1
  C  C77  1  0.47988000  0.69550000  0.84934000  1
  C  C78  1  0.66332000  0.52749000  0.84947000  1
  C  C79  1  0.71414000  0.47114000  0.85038000  1
  C  C80  1  0.02292000  0.94406000  0.24310000  1
  C  C81  1  0.02796000  0.99767000  0.25541000  1
  C  C82  1  0.08099000  0.02437000  0.22185000  1
  C  C83  1  0.02593000  0.20091000  0.27043000  1
  C  C84  1  0.02495000  0.09850000  0.28580000  1
  C  C85  1  0.94771000  0.24243000  0.47735000  1
  C  C86  1  0.98046000  0.19607000  0.61901000  1
  C  C87  1  0.02038000  0.24886000  0.29378000  1
  C  C88  1  0.08071000  0.07458000  0.23540000  1
  C  C89  1  0.00069000  0.19680000  0.44582000  1
  C  C90  1  0.01375000  0.24810000  0.35060000  1
  C  C91  1  0.97286000  0.07172000  0.32056000  1
  C  C92  1  0.97033000  0.02126000  0.30668000  1
  C  C93  1  0.98410000  0.19469000  0.55971000  1
  C  C94  1  0.93932000  0.24060000  0.53416000  1
  C  C95  1  0.01117000  0.19897000  0.38509000  1
  C  C96  1  0.01830000  0.15121000  0.36119000  1
  C  C97  1  0.02472000  0.15066000  0.30450000  1
  C  C98  1  0.04028000  0.15053000  0.47251000  1
  C  C99  1  0.03566000  0.14962000  0.52886000  1
  C  C100  1  0.97708000  0.75690000  0.05594000  1
  C  C101  1  0.97204000  0.74459000  0.00233000  1
  C  C102  1  0.91901000  0.77815000  0.97563000  1
  C  C103  1  0.97407000  0.72957000  0.79909000  1
  C  C104  1  0.97505000  0.71420000  0.90150000  1
  C  C105  1  0.05229000  0.52265000  0.75757000  1
  C  C106  1  0.01954000  0.38099000  0.80393000  1
  C  C107  1  0.97962000  0.70622000  0.75114000  1
  C  C108  1  0.91929000  0.76460000  0.92542000  1
  C  C109  1  0.99931000  0.55418000  0.80320000  1
  C  C110  1  0.98625000  0.64940000  0.75190000  1
  C  C111  1  0.02714000  0.67944000  0.92828000  1
  C  C112  1  0.02967000  0.69332000  0.97874000  1
  C  C113  1  0.01590000  0.44029000  0.80531000  1
  C  C114  1  0.06068000  0.46584000  0.75940000  1
  C  C115  1  0.98883000  0.61491000  0.80103000  1
  C  C116  1  0.98170000  0.63881000  0.84879000  1
  C  C117  1  0.97528000  0.69550000  0.84934000  1
  C  C118  1  0.95972000  0.52749000  0.84947000  1
  C  C119  1  0.96434000  0.47114000  0.85038000  1
  C  C120  1  0.21008000  0.05594000  0.75690000  1
  C  C121  1  0.28104000  0.00233000  0.74459000  1
  C  C122  1  0.32721000  0.97563000  0.77815000  1
  C  C123  1  0.49727000  0.79909000  0.72957000  1
  C  C124  1  0.40925000  0.90150000  0.71420000  1
  C  C125  1  0.66749000  0.75757000  0.52265000  1
  C  C126  1  0.79554000  0.80393000  0.38099000  1
  C  C127  1  0.56302000  0.75114000  0.70622000  1
  C  C128  1  0.39069000  0.92542000  0.76460000  1
  C  C129  1  0.64331000  0.80320000  0.55418000  1
  C  C130  1  0.61245000  0.75190000  0.64940000  1
  C  C131  1  0.36514000  0.92828000  0.67944000  1
  C  C132  1  0.29827000  0.97874000  0.69332000  1
  C  C133  1  0.73850000  0.80531000  0.44029000  1
  C  C134  1  0.71408000  0.75940000  0.46584000  1
  C  C135  1  0.59523000  0.80103000  0.61491000  1
  C  C136  1  0.53070000  0.84879000  0.63881000  1
  C  C137  1  0.47988000  0.84934000  0.69550000  1
  C  C138  1  0.66332000  0.84947000  0.52749000  1
  C  C139  1  0.71414000  0.85038000  0.47114000  1
  C  C140  1  0.78992000  0.24310000  0.94406000  1
  C  C141  1  0.71896000  0.25541000  0.99767000  1
  C  C142  1  0.67279000  0.22185000  0.02437000  1
  C  C143  1  0.50273000  0.27043000  0.20091000  1
  C  C144  1  0.59075000  0.28580000  0.09850000  1
  C  C145  1  0.33251000  0.47735000  0.24243000  1
  C  C146  1  0.20446000  0.61901000  0.19607000  1
  C  C147  1  0.43698000  0.29378000  0.24886000  1
  C  C148  1  0.60931000  0.23540000  0.07458000  1
  C  C149  1  0.35669000  0.44582000  0.19680000  1
  C  C150  1  0.38755000  0.35060000  0.24810000  1
  C  C151  1  0.63486000  0.32056000  0.07172000  1
  C  C152  1  0.70173000  0.30668000  0.02126000  1
  C  C153  1  0.26150000  0.55971000  0.19469000  1
  C  C154  1  0.28592000  0.53416000  0.24060000  1
  C  C155  1  0.40477000  0.38509000  0.19897000  1
  C  C156  1  0.46930000  0.36119000  0.15121000  1
  C  C157  1  0.52012000  0.30450000  0.15066000  1
  C  C158  1  0.33668000  0.47251000  0.15053000  1
  C  C159  1  0.28586000  0.52886000  0.14962000  1
  H  H160  1  0.88020000  0.99180000  0.81220000  1
  H  H161  1  0.08310000  0.72490000  0.53990000  1
  H  H162  1  0.88160000  0.90720000  0.78940000  1
  H  H163  1  0.98900000  0.71920000  0.63480000  1
  H  H164  1  0.06330000  0.91290000  0.64450000  1
  H  H165  1  0.06870000  0.99630000  0.66910000  1
  H  H166  1  0.09820000  0.72810000  0.44430000  1
  H  H167  1  0.98130000  0.88280000  0.61520000  1
  H  H168  1  0.92760000  0.88270000  0.54750000  1
  H  H169  1  0.93140000  0.88240000  0.45460000  1
  H  H170  1  0.96370000  0.80940000  0.80940000  1
  H  H171  1  0.11980000  0.18780000  0.00820000  1
  H  H172  1  0.91690000  0.46010000  0.27510000  1
  H  H173  1  0.11840000  0.21060000  0.09280000  1
  H  H174  1  0.01100000  0.36520000  0.28080000  1
  H  H175  1  0.93670000  0.35550000  0.08710000  1
  H  H176  1  0.93130000  0.33090000  0.00370000  1
  H  H177  1  0.90180000  0.55570000  0.27190000  1
  H  H178  1  0.01870000  0.38480000  0.11720000  1
  H  H179  1  0.07240000  0.45250000  0.11730000  1
  H  H180  1  0.06860000  0.54540000  0.11760000  1
  H  H181  1  0.03630000  0.19060000  0.19060000  1
  H  H182  1  0.68420000  0.00820000  0.18780000  1
  H  H183  1  0.34790000  0.27510000  0.46010000  1
  H  H184  1  0.57820000  0.09280000  0.21060000  1
  H  H185  1  0.34300000  0.28080000  0.36520000  1
  H  H186  1  0.62070000  0.08710000  0.35550000  1
  H  H187  1  0.73410000  0.00370000  0.33090000  1
  H  H188  1  0.27060000  0.27190000  0.55570000  1
  H  H189  1  0.47930000  0.11720000  0.38480000  1
  H  H190  1  0.35780000  0.11730000  0.45250000  1
  H  H191  1  0.26840000  0.11760000  0.54540000  1
  H  H192  1  0.58250000  0.19060000  0.19060000  1
  H  H193  1  0.31580000  0.81220000  0.99180000  1
  H  H194  1  0.65210000  0.53990000  0.72490000  1
  H  H195  1  0.42180000  0.78940000  0.90720000  1
  H  H196  1  0.65700000  0.63480000  0.71920000  1
  H  H197  1  0.37930000  0.64450000  0.91290000  1
  H  H198  1  0.26590000  0.66910000  0.99630000  1
  H  H199  1  0.72940000  0.44430000  0.72810000  1
  H  H200  1  0.52070000  0.61520000  0.88280000  1
  H  H201  1  0.64220000  0.54750000  0.88270000  1
  H  H202  1  0.73160000  0.45460000  0.88240000  1
  H  H203  1  0.41750000  0.80940000  0.80940000  1
  H  H204  1  0.11980000  0.00820000  0.18780000  1
  H  H205  1  0.91690000  0.27510000  0.46010000  1
  H  H206  1  0.11840000  0.09280000  0.21060000  1
  H  H207  1  0.01100000  0.28080000  0.36520000  1
  H  H208  1  0.93670000  0.08710000  0.35550000  1
  H  H209  1  0.93130000  0.00370000  0.33090000  1
  H  H210  1  0.90180000  0.27190000  0.55570000  1
  H  H211  1  0.01870000  0.11720000  0.38480000  1
  H  H212  1  0.07240000  0.11730000  0.45250000  1
  H  H213  1  0.06860000  0.11760000  0.54540000  1
  H  H214  1  0.88020000  0.81220000  0.99180000  1
  H  H215  1  0.08310000  0.53990000  0.72490000  1
  H  H216  1  0.88160000  0.78940000  0.90720000  1
  H  H217  1  0.98900000  0.63480000  0.71920000  1
  H  H218  1  0.06330000  0.64450000  0.91290000  1
  H  H219  1  0.06870000  0.66910000  0.99630000  1
  H  H220  1  0.09820000  0.44430000  0.72810000  1
  H  H221  1  0.98130000  0.61520000  0.88280000  1
  H  H222  1  0.92760000  0.54750000  0.88270000  1
  H  H223  1  0.93140000  0.45460000  0.88240000  1
  H  H224  1  0.31580000  0.99180000  0.81220000  1
  H  H225  1  0.65210000  0.72490000  0.53990000  1
  H  H226  1  0.42180000  0.90720000  0.78940000  1
  H  H227  1  0.65700000  0.71920000  0.63480000  1
  H  H228  1  0.37930000  0.91290000  0.64450000  1
  H  H229  1  0.26590000  0.99630000  0.66910000  1
  H  H230  1  0.72940000  0.72810000  0.44430000  1
  H  H231  1  0.52070000  0.88280000  0.61520000  1
  H  H232  1  0.64220000  0.88270000  0.54750000  1
  H  H233  1  0.73160000  0.88240000  0.45460000  1
  H  H234  1  0.68420000  0.18780000  0.00820000  1
  H  H235  1  0.34790000  0.46010000  0.27510000  1
  H  H236  1  0.57820000  0.21060000  0.09280000  1
  H  H237  1  0.34300000  0.36520000  0.28080000  1
  H  H238  1  0.62070000  0.35550000  0.08710000  1
  H  H239  1  0.73410000  0.33090000  0.00370000  1
  H  H240  1  0.27060000  0.55570000  0.27190000  1
  H  H241  1  0.47930000  0.38480000  0.11720000  1
  H  H242  1  0.35780000  0.45250000  0.11730000  1
  H  H243  1  0.26840000  0.54540000  0.11760000  1
  N  N244  1  0.96911000  0.78589000  0.78589000  1
  N  N245  1  0.03089000  0.21411000  0.21411000  1
  N  N246  1  0.54089000  0.21411000  0.21411000  1
  N  N247  1  0.45911000  0.78589000  0.78589000  1
  O  O248  1  0.03184000  0.07422000  0.72090000  1
  O  O249  1  0.96838000  0.84427000  0.36257000  1
  O  O250  1  0.92397000  0.08044000  0.80062000  1
  O  O251  1  0.07446000  0.76293000  0.35335000  1
  O  O252  1  0.93950000  0.18303000  0.74877000  1
  O  O253  1  0.03520000  0.12608000  0.80352000  1
  O  O254  1  0.03508000  0.23737000  0.69247000  1
  O  O255  1  0.96816000  0.27910000  0.92578000  1
  O  O256  1  0.03162000  0.63743000  0.15573000  1
  O  O257  1  0.07603000  0.19938000  0.91956000  1
  O  O258  1  0.92554000  0.64665000  0.23707000  1
  O  O259  1  0.06050000  0.25123000  0.81697000  1
  O  O260  1  0.96480000  0.19648000  0.87392000  1
  O  O261  1  0.96492000  0.30753000  0.76263000  1
  O  O262  1  0.82696000  0.92578000  0.27910000  1
  O  O263  1  0.17522000  0.15573000  0.63743000  1
  O  O264  1  0.80503000  0.91956000  0.19938000  1
  O  O265  1  0.19074000  0.23707000  0.64665000  1
  O  O266  1  0.87130000  0.81697000  0.25123000  1
  O  O267  1  0.96480000  0.87392000  0.19648000  1
  O  O268  1  0.96492000  0.76263000  0.30753000  1
  O  O269  1  0.17304000  0.72090000  0.07422000  1
  O  O270  1  0.82478000  0.36257000  0.84427000  1
  O  O271  1  0.19497000  0.80062000  0.08044000  1
  O  O272  1  0.80926000  0.35335000  0.76293000  1
  O  O273  1  0.12870000  0.74877000  0.18303000  1
  O  O274  1  0.03520000  0.80352000  0.12608000  1
  O  O275  1  0.03508000  0.69247000  0.23737000  1
  O  O276  1  0.96816000  0.92578000  0.27910000  1
  O  O277  1  0.03162000  0.15573000  0.63743000  1
  O  O278  1  0.07603000  0.91956000  0.19938000  1
  O  O279  1  0.92554000  0.23707000  0.64665000  1
  O  O280  1  0.06050000  0.81697000  0.25123000  1
  O  O281  1  0.03184000  0.72090000  0.07422000  1
  O  O282  1  0.96838000  0.36257000  0.84427000  1
  O  O283  1  0.92397000  0.80062000  0.08044000  1
  O  O284  1  0.07446000  0.35335000  0.76293000  1
  O  O285  1  0.93950000  0.74877000  0.18303000  1
  O  O286  1  0.17304000  0.07422000  0.72090000  1
  O  O287  1  0.82478000  0.84427000  0.36257000  1
  O  O288  1  0.19497000  0.08044000  0.80062000  1
  O  O289  1  0.80926000  0.76293000  0.35335000  1
  O  O290  1  0.12870000  0.18303000  0.74877000  1
  O  O291  1  0.82696000  0.27910000  0.92578000  1
  O  O292  1  0.17522000  0.63743000  0.15573000  1
  O  O293  1  0.80503000  0.19938000  0.91956000  1
  O  O294  1  0.19074000  0.64665000  0.23707000  1
  O  O295  1  0.87130000  0.25123000  0.81697000  1
  Zr  Zr296  1  0.07062000  0.14678000  0.71198000  1
  Zr  Zr297  1  0.90389000  0.16215000  0.83785000  1
  Zr  Zr298  1  0.90483000  0.27221000  0.72779000  1
  Zr  Zr299  1  0.92938000  0.28802000  0.85322000  1
  Zr  Zr300  1  0.09611000  0.16215000  0.83785000  1
  Zr  Zr301  1  0.09517000  0.27221000  0.72779000  1
  Zr  Zr302  1  0.92938000  0.85322000  0.28802000  1
  Zr  Zr303  1  0.90389000  0.83785000  0.16215000  1
  Zr  Zr304  1  0.90483000  0.72779000  0.27221000  1
  Zr  Zr305  1  0.07062000  0.71198000  0.14678000  1
  Zr  Zr306  1  0.09611000  0.83785000  0.16215000  1
  Zr  Zr307  1  0.09517000  0.72779000  0.27221000  1
