# generated using pymatgen
data_Zr6H56C105(NO8)4
_symmetry_space_group_name_H-M   'P 1'
_cell_length_a   20.85340000
_cell_length_b   25.45067717
_cell_length_c   25.45067717
_cell_angle_alpha   78.50738971
_cell_angle_beta   65.81510121
_cell_angle_gamma   65.81510121
_symmetry_Int_Tables_number   1
_chemical_formula_structural   Zr6H56C105(NO8)4
_chemical_formula_sum   'Zr12 H112 C210 N8 O64'
_cell_volume   11232.41263990
_cell_formula_units_Z   2
loop_
 _symmetry_equiv_pos_site_id
 _symmetry_equiv_pos_as_xyz
  1  'x, y, z'
loop_
 _atom_site_type_symbol
 _atom_site_label
 _atom_site_symmetry_multiplicity
 _atom_site_fract_x
 _atom_site_fract_y
 _atom_site_fract_z
 _atom_site_occupancy
  C  C0  1  0.81280000  0.38540000  0.19280000  1
  C  C1  1  0.80458000  0.44522000  0.19342000  1
  C  C2  1  0.79484000  0.46626000  0.24386000  1
  C  C3  1  0.78310000  0.52410000  0.24570000  1
  C  C4  1  0.78496000  0.56084000  0.19784000  1
  C  C5  1  0.79637000  0.53883000  0.14683000  1
  C  C6  1  0.80630000  0.48180000  0.14360000  1
  C  C7  1  0.77838000  0.61962000  0.19982000  1
  C  C8  1  0.72712000  0.65308000  0.24688000  1
  C  C9  1  0.72378000  0.70932000  0.24752000  1
  C  C10  1  0.77105000  0.73235000  0.20135000  1
  C  C11  1  0.82218000  0.70002000  0.15302000  1
  C  C12  1  0.82306000  0.64404000  0.15424000  1
  C  C13  1  0.88010000  0.71700000  0.10380000  1
  C  C14  1  0.86280000  0.76790000  0.07510000  1
  C  C15  1  0.91610000  0.78070000  0.02210000  1
  C  C16  1  0.98730000  0.74130000  0.00070000  1
  C  C17  1  0.00850000  0.68970000  0.03270000  1
  C  C18  1  0.95480000  0.67680000  0.08260000  1
  C  C19  1  0.04334000  0.75256000  0.94756000  1
  C  C20  1  0.60900000  0.19280000  0.38540000  1
  C  C21  1  0.55678000  0.19342000  0.44522000  1
  C  C22  1  0.49504000  0.24386000  0.46626000  1
  C  C23  1  0.44710000  0.24570000  0.52410000  1
  C  C24  1  0.45636000  0.19784000  0.56084000  1
  C  C25  1  0.51797000  0.14683000  0.53883000  1
  C  C26  1  0.56830000  0.14360000  0.48180000  1
  C  C27  1  0.40218000  0.19982000  0.61962000  1
  C  C28  1  0.37292000  0.24688000  0.65308000  1
  C  C29  1  0.31938000  0.24752000  0.70932000  1
  C  C30  1  0.29525000  0.20135000  0.73235000  1
  C  C31  1  0.32478000  0.15302000  0.70002000  1
  C  C32  1  0.37866000  0.15424000  0.64404000  1
  C  C33  1  0.29910000  0.10380000  0.71700000  1
  C  C34  1  0.29420000  0.07510000  0.76790000  1
  C  C35  1  0.28110000  0.02210000  0.78070000  1
  C  C36  1  0.27070000  0.00070000  0.74130000  1
  C  C37  1  0.26910000  0.03270000  0.68970000  1
  C  C38  1  0.28580000  0.08260000  0.67680000  1
  C  C39  1  0.25654000  0.94756000  0.75256000  1
  C  C40  1  0.18720000  0.80720000  0.61460000  1
  C  C41  1  0.19542000  0.80658000  0.55478000  1
  C  C42  1  0.20516000  0.75614000  0.53374000  1
  C  C43  1  0.21690000  0.75430000  0.47590000  1
  C  C44  1  0.21504000  0.80216000  0.43916000  1
  C  C45  1  0.20363000  0.85317000  0.46117000  1
  C  C46  1  0.19370000  0.85640000  0.51820000  1
  C  C47  1  0.22162000  0.80018000  0.38038000  1
  C  C48  1  0.27288000  0.75312000  0.34692000  1
  C  C49  1  0.27622000  0.75248000  0.29068000  1
  C  C50  1  0.22895000  0.79865000  0.26765000  1
  C  C51  1  0.17782000  0.84698000  0.29998000  1
  C  C52  1  0.17694000  0.84576000  0.35596000  1
  C  C53  1  0.11990000  0.89620000  0.28300000  1
  C  C54  1  0.13720000  0.92490000  0.23210000  1
  C  C55  1  0.08390000  0.97790000  0.21930000  1
  C  C56  1  0.01270000  0.99930000  0.25870000  1
  C  C57  1  0.99150000  0.96730000  0.31030000  1
  C  C58  1  0.04520000  0.91740000  0.32320000  1
  C  C59  1  0.95666000  0.05244000  0.24744000  1
  C  C60  1  0.39100000  0.61460000  0.80720000  1
  C  C61  1  0.44322000  0.55478000  0.80658000  1
  C  C62  1  0.50496000  0.53374000  0.75614000  1
  C  C63  1  0.55290000  0.47590000  0.75430000  1
  C  C64  1  0.54364000  0.43916000  0.80216000  1
  C  C65  1  0.48203000  0.46117000  0.85317000  1
  C  C66  1  0.43170000  0.51820000  0.85640000  1
  C  C67  1  0.59782000  0.38038000  0.80018000  1
  C  C68  1  0.62708000  0.34692000  0.75312000  1
  C  C69  1  0.68062000  0.29068000  0.75248000  1
  C  C70  1  0.70475000  0.26765000  0.79865000  1
  C  C71  1  0.67522000  0.29998000  0.84698000  1
  C  C72  1  0.62134000  0.35596000  0.84576000  1
  C  C73  1  0.70090000  0.28300000  0.89620000  1
  C  C74  1  0.70580000  0.23210000  0.92490000  1
  C  C75  1  0.71890000  0.21930000  0.97790000  1
  C  C76  1  0.72930000  0.25870000  0.99930000  1
  C  C77  1  0.73090000  0.31030000  0.96730000  1
  C  C78  1  0.71420000  0.32320000  0.91740000  1
  C  C79  1  0.74346000  0.24744000  0.05244000  1
  C  C80  1  0.18720000  0.61460000  0.80720000  1
  C  C81  1  0.19542000  0.55478000  0.80658000  1
  C  C82  1  0.20516000  0.53374000  0.75614000  1
  C  C83  1  0.21690000  0.47590000  0.75430000  1
  C  C84  1  0.21504000  0.43916000  0.80216000  1
  C  C85  1  0.20363000  0.46117000  0.85317000  1
  C  C86  1  0.19370000  0.51820000  0.85640000  1
  C  C87  1  0.22162000  0.38038000  0.80018000  1
  C  C88  1  0.27288000  0.34692000  0.75312000  1
  C  C89  1  0.27622000  0.29068000  0.75248000  1
  C  C90  1  0.22895000  0.26765000  0.79865000  1
  C  C91  1  0.17782000  0.29998000  0.84698000  1
  C  C92  1  0.17694000  0.35596000  0.84576000  1
  C  C93  1  0.11990000  0.28300000  0.89620000  1
  C  C94  1  0.13720000  0.23210000  0.92490000  1
  C  C95  1  0.08390000  0.21930000  0.97790000  1
  C  C96  1  0.01270000  0.25870000  0.99930000  1
  C  C97  1  0.99150000  0.31030000  0.96730000  1
  C  C98  1  0.04520000  0.32320000  0.91740000  1
  C  C99  1  0.95666000  0.24744000  0.05244000  1
  C  C100  1  0.39100000  0.80720000  0.61460000  1
  C  C101  1  0.44322000  0.80658000  0.55478000  1
  C  C102  1  0.50496000  0.75614000  0.53374000  1
  C  C103  1  0.55290000  0.75430000  0.47590000  1
  C  C104  1  0.54364000  0.80216000  0.43916000  1
  C  C105  1  0.48203000  0.85317000  0.46117000  1
  C  C106  1  0.43170000  0.85640000  0.51820000  1
  C  C107  1  0.59782000  0.80018000  0.38038000  1
  C  C108  1  0.62708000  0.75312000  0.34692000  1
  C  C109  1  0.68062000  0.75248000  0.29068000  1
  C  C110  1  0.70475000  0.79865000  0.26765000  1
  C  C111  1  0.67522000  0.84698000  0.29998000  1
  C  C112  1  0.62134000  0.84576000  0.35596000  1
  C  C113  1  0.70090000  0.89620000  0.28300000  1
  C  C114  1  0.70580000  0.92490000  0.23210000  1
  C  C115  1  0.71890000  0.97790000  0.21930000  1
  C  C116  1  0.72930000  0.99930000  0.25870000  1
  C  C117  1  0.73090000  0.96730000  0.31030000  1
  C  C118  1  0.71420000  0.91740000  0.32320000  1
  C  C119  1  0.74346000  0.05244000  0.24744000  1
  C  C120  1  0.81280000  0.19280000  0.38540000  1
  C  C121  1  0.80458000  0.19342000  0.44522000  1
  C  C122  1  0.79484000  0.24386000  0.46626000  1
  C  C123  1  0.78310000  0.24570000  0.52410000  1
  C  C124  1  0.78496000  0.19784000  0.56084000  1
  C  C125  1  0.79637000  0.14683000  0.53883000  1
  C  C126  1  0.80630000  0.14360000  0.48180000  1
  C  C127  1  0.77838000  0.19982000  0.61962000  1
  C  C128  1  0.72712000  0.24688000  0.65308000  1
  C  C129  1  0.72378000  0.24752000  0.70932000  1
  C  C130  1  0.77105000  0.20135000  0.73235000  1
  C  C131  1  0.82218000  0.15302000  0.70002000  1
  C  C132  1  0.82306000  0.15424000  0.64404000  1
  C  C133  1  0.88010000  0.10380000  0.71700000  1
  C  C134  1  0.86280000  0.07510000  0.76790000  1
  C  C135  1  0.91610000  0.02210000  0.78070000  1
  C  C136  1  0.98730000  0.00070000  0.74130000  1
  C  C137  1  0.00850000  0.03270000  0.68970000  1
  C  C138  1  0.95480000  0.08260000  0.67680000  1
  C  C139  1  0.04334000  0.94756000  0.75256000  1
  C  C140  1  0.60900000  0.38540000  0.19280000  1
  C  C141  1  0.55678000  0.44522000  0.19342000  1
  C  C142  1  0.49504000  0.46626000  0.24386000  1
  C  C143  1  0.44710000  0.52410000  0.24570000  1
  C  C144  1  0.45636000  0.56084000  0.19784000  1
  C  C145  1  0.51797000  0.53883000  0.14683000  1
  C  C146  1  0.56830000  0.48180000  0.14360000  1
  C  C147  1  0.40218000  0.61962000  0.19982000  1
  C  C148  1  0.37292000  0.65308000  0.24688000  1
  C  C149  1  0.31938000  0.70932000  0.24752000  1
  C  C150  1  0.29525000  0.73235000  0.20135000  1
  C  C151  1  0.32478000  0.70002000  0.15302000  1
  C  C152  1  0.37866000  0.64404000  0.15424000  1
  C  C153  1  0.29910000  0.71700000  0.10380000  1
  C  C154  1  0.29420000  0.76790000  0.07510000  1
  C  C155  1  0.28110000  0.78070000  0.02210000  1
  C  C156  1  0.27070000  0.74130000  0.00070000  1
  C  C157  1  0.26910000  0.68970000  0.03270000  1
  C  C158  1  0.28580000  0.67680000  0.08260000  1
  C  C159  1  0.25654000  0.75256000  0.94756000  1
  C  C160  1  0.99550000  0.21740000  0.21740000  1
  C  C161  1  0.06730000  0.21640000  0.21640000  1
  C  C162  1  0.07090000  0.24970000  0.24970000  1
  C  C163  1  0.13310000  0.25280000  0.25280000  1
  C  C164  1  0.19680000  0.21720000  0.21720000  1
  C  C165  1  0.19540000  0.18500000  0.18500000  1
  C  C166  1  0.13530000  0.18330000  0.18330000  1
  C  C167  1  0.64100000  0.41440000  0.41440000  1
  C  C168  1  0.59960000  0.45740000  0.45740000  1
  C  C169  1  0.03670000  0.02010000  0.02010000  1
  C  C170  1  0.56970000  0.21740000  0.21740000  1
  C  C171  1  0.49990000  0.21640000  0.21640000  1
  C  C172  1  0.42970000  0.24970000  0.24970000  1
  C  C173  1  0.36130000  0.25280000  0.25280000  1
  C  C174  1  0.36880000  0.21720000  0.21720000  1
  C  C175  1  0.43460000  0.18500000  0.18500000  1
  C  C176  1  0.49810000  0.18330000  0.18330000  1
  C  C177  1  0.53020000  0.41440000  0.41440000  1
  C  C178  1  0.48560000  0.45740000  0.45740000  1
  C  C179  1  0.92310000  0.02010000  0.02010000  1
  C  C180  1  0.00450000  0.78260000  0.78260000  1
  C  C181  1  0.93270000  0.78360000  0.78360000  1
  C  C182  1  0.92910000  0.75030000  0.75030000  1
  C  C183  1  0.86690000  0.74720000  0.74720000  1
  C  C184  1  0.80320000  0.78280000  0.78280000  1
  C  C185  1  0.80460000  0.81500000  0.81500000  1
  C  C186  1  0.86470000  0.81670000  0.81670000  1
  C  C187  1  0.35900000  0.58560000  0.58560000  1
  C  C188  1  0.40040000  0.54260000  0.54260000  1
  C  C189  1  0.96330000  0.97990000  0.97990000  1
  C  C190  1  0.43030000  0.78260000  0.78260000  1
  C  C191  1  0.50010000  0.78360000  0.78360000  1
  C  C192  1  0.57030000  0.75030000  0.75030000  1
  C  C193  1  0.63870000  0.74720000  0.74720000  1
  C  C194  1  0.63120000  0.78280000  0.78280000  1
  C  C195  1  0.56540000  0.81500000  0.81500000  1
  C  C196  1  0.50190000  0.81670000  0.81670000  1
  C  C197  1  0.46980000  0.58560000  0.58560000  1
  C  C198  1  0.51440000  0.54260000  0.54260000  1
  C  C199  1  0.07690000  0.97990000  0.97990000  1
  C  C200  1  0.65070000  0.34930000  0.34930000  1
  C  C201  1  0.60500000  0.39500000  0.39500000  1
  C  C202  1  0.52130000  0.47870000  0.47870000  1
  C  C203  1  0.91400000  0.08600000  0.08600000  1
  C  C204  1  0.95950000  0.04050000  0.04050000  1
  C  C205  1  0.34930000  0.65070000  0.65070000  1
  C  C206  1  0.39500000  0.60500000  0.60500000  1
  C  C207  1  0.47870000  0.52130000  0.52130000  1
  C  C208  1  0.08600000  0.91400000  0.91400000  1
  C  C209  1  0.04050000  0.95950000  0.95950000  1
  H  H210  1  0.79610000  0.44130000  0.27690000  1
  H  H211  1  0.77370000  0.53840000  0.28100000  1
  H  H212  1  0.79740000  0.56370000  0.11350000  1
  H  H213  1  0.81400000  0.46790000  0.10870000  1
  H  H214  1  0.69440000  0.63810000  0.27870000  1
  H  H215  1  0.85670000  0.62170000  0.12130000  1
  H  H216  1  0.81370000  0.79630000  0.09050000  1
  H  H217  1  0.90170000  0.81660000  0.00200000  1
  H  H218  1  0.05950000  0.66360000  0.02020000  1
  H  H219  1  0.96860000  0.64060000  0.10240000  1
  H  H220  1  0.48570000  0.27690000  0.44130000  1
  H  H221  1  0.40690000  0.28100000  0.53840000  1
  H  H222  1  0.52540000  0.11350000  0.56370000  1
  H  H223  1  0.60940000  0.10870000  0.46790000  1
  H  H224  1  0.38880000  0.27870000  0.63810000  1
  H  H225  1  0.40030000  0.12130000  0.62170000  1
  H  H226  1  0.29950000  0.09050000  0.79630000  1
  H  H227  1  0.27970000  0.00200000  0.81660000  1
  H  H228  1  0.25670000  0.02020000  0.66360000  1
  H  H229  1  0.28840000  0.10240000  0.64060000  1
  H  H230  1  0.20390000  0.72310000  0.55870000  1
  H  H231  1  0.22630000  0.71900000  0.46160000  1
  H  H232  1  0.20260000  0.88650000  0.43630000  1
  H  H233  1  0.18600000  0.89130000  0.53210000  1
  H  H234  1  0.30560000  0.72130000  0.36190000  1
  H  H235  1  0.14330000  0.87870000  0.37830000  1
  H  H236  1  0.18630000  0.90950000  0.20370000  1
  H  H237  1  0.09830000  0.99800000  0.18340000  1
  H  H238  1  0.94050000  0.97980000  0.33640000  1
  H  H239  1  0.03140000  0.89760000  0.35940000  1
  H  H240  1  0.51430000  0.55870000  0.72310000  1
  H  H241  1  0.59310000  0.46160000  0.71900000  1
  H  H242  1  0.47460000  0.43630000  0.88650000  1
  H  H243  1  0.39060000  0.53210000  0.89130000  1
  H  H244  1  0.61120000  0.36190000  0.72130000  1
  H  H245  1  0.59970000  0.37830000  0.87870000  1
  H  H246  1  0.70050000  0.20370000  0.90950000  1
  H  H247  1  0.72030000  0.18340000  0.99800000  1
  H  H248  1  0.74330000  0.33640000  0.97980000  1
  H  H249  1  0.71160000  0.35940000  0.89760000  1
  H  H250  1  0.20390000  0.55870000  0.72310000  1
  H  H251  1  0.22630000  0.46160000  0.71900000  1
  H  H252  1  0.20260000  0.43630000  0.88650000  1
  H  H253  1  0.18600000  0.53210000  0.89130000  1
  H  H254  1  0.30560000  0.36190000  0.72130000  1
  H  H255  1  0.14330000  0.37830000  0.87870000  1
  H  H256  1  0.18630000  0.20370000  0.90950000  1
  H  H257  1  0.09830000  0.18340000  0.99800000  1
  H  H258  1  0.94050000  0.33640000  0.97980000  1
  H  H259  1  0.03140000  0.35940000  0.89760000  1
  H  H260  1  0.51430000  0.72310000  0.55870000  1
  H  H261  1  0.59310000  0.71900000  0.46160000  1
  H  H262  1  0.47460000  0.88650000  0.43630000  1
  H  H263  1  0.39060000  0.89130000  0.53210000  1
  H  H264  1  0.61120000  0.72130000  0.36190000  1
  H  H265  1  0.59970000  0.87870000  0.37830000  1
  H  H266  1  0.70050000  0.90950000  0.20370000  1
  H  H267  1  0.72030000  0.99800000  0.18340000  1
  H  H268  1  0.74330000  0.97980000  0.33640000  1
  H  H269  1  0.71160000  0.89760000  0.35940000  1
  H  H270  1  0.79610000  0.27690000  0.44130000  1
  H  H271  1  0.77370000  0.28100000  0.53840000  1
  H  H272  1  0.79740000  0.11350000  0.56370000  1
  H  H273  1  0.81400000  0.10870000  0.46790000  1
  H  H274  1  0.69440000  0.27870000  0.63810000  1
  H  H275  1  0.85670000  0.12130000  0.62170000  1
  H  H276  1  0.81370000  0.09050000  0.79630000  1
  H  H277  1  0.90170000  0.00200000  0.81660000  1
  H  H278  1  0.05950000  0.02020000  0.66360000  1
  H  H279  1  0.96860000  0.10240000  0.64060000  1
  H  H280  1  0.48570000  0.44130000  0.27690000  1
  H  H281  1  0.40690000  0.53840000  0.28100000  1
  H  H282  1  0.52540000  0.56370000  0.11350000  1
  H  H283  1  0.60940000  0.46790000  0.10870000  1
  H  H284  1  0.38880000  0.63810000  0.27870000  1
  H  H285  1  0.40030000  0.62170000  0.12130000  1
  H  H286  1  0.29950000  0.79630000  0.09050000  1
  H  H287  1  0.27970000  0.81660000  0.00200000  1
  H  H288  1  0.25670000  0.66360000  0.02020000  1
  H  H289  1  0.28840000  0.64060000  0.10240000  1
  H  H290  1  0.02360000  0.27440000  0.27440000  1
  H  H291  1  0.13110000  0.27740000  0.27740000  1
  H  H292  1  0.24260000  0.16040000  0.16040000  1
  H  H293  1  0.13990000  0.15800000  0.15800000  1
  H  H294  1  0.69460000  0.39980000  0.39980000  1
  H  H295  1  0.62580000  0.47110000  0.47110000  1
  H  H296  1  0.06200000  0.03430000  0.03430000  1
  H  H297  1  0.42760000  0.27440000  0.27440000  1
  H  H298  1  0.31410000  0.27740000  0.27740000  1
  H  H299  1  0.43660000  0.16040000  0.16040000  1
  H  H300  1  0.54410000  0.15800000  0.15800000  1
  H  H301  1  0.50580000  0.39980000  0.39980000  1
  H  H302  1  0.43200000  0.47110000  0.47110000  1
  H  H303  1  0.86940000  0.03430000  0.03430000  1
  H  H304  1  0.97640000  0.72560000  0.72560000  1
  H  H305  1  0.86890000  0.72260000  0.72260000  1
  H  H306  1  0.75740000  0.83960000  0.83960000  1
  H  H307  1  0.86010000  0.84200000  0.84200000  1
  H  H308  1  0.30540000  0.60020000  0.60020000  1
  H  H309  1  0.37420000  0.52890000  0.52890000  1
  H  H310  1  0.93800000  0.96570000  0.96570000  1
  H  H311  1  0.57240000  0.72560000  0.72560000  1
  H  H312  1  0.68590000  0.72260000  0.72260000  1
  H  H313  1  0.56340000  0.83960000  0.83960000  1
  H  H314  1  0.45590000  0.84200000  0.84200000  1
  H  H315  1  0.49420000  0.60020000  0.60020000  1
  H  H316  1  0.56800000  0.52890000  0.52890000  1
  H  H317  1  0.13060000  0.96570000  0.96570000  1
  H  H318  1  0.79110000  0.81188000  0.18106000  1
  H  H319  1  0.21596000  0.18106000  0.81188000  1
  H  H320  1  0.20890000  0.81894000  0.18812000  1
  H  H321  1  0.78404000  0.18812000  0.81894000  1
  N  N322  1  0.75890000  0.78660000  0.21340000  1
  N  N323  1  0.24110000  0.21340000  0.78660000  1
  N  N324  1  0.24110000  0.78660000  0.21340000  1
  N  N325  1  0.75890000  0.21340000  0.78660000  1
  N  N326  1  0.29930000  0.20070000  0.20070000  1
  N  N327  1  0.26350000  0.23650000  0.23650000  1
  N  N328  1  0.70070000  0.79930000  0.79930000  1
  N  N329  1  0.73650000  0.76350000  0.76350000  1
  O  O330  1  0.80513000  0.37100000  0.14982000  1
  O  O331  1  0.82655000  0.35251000  0.23577000  1
  O  O332  1  0.11217000  0.71225000  0.93299000  1
  O  O333  1  0.01948000  0.80036000  0.91778000  1
  O  O334  1  0.86571000  0.25626000  0.17972000  1
  O  O335  1  0.67405000  0.14982000  0.37100000  1
  O  O336  1  0.58517000  0.23577000  0.35251000  1
  O  O337  1  0.24259000  0.93299000  0.71225000  1
  O  O338  1  0.26238000  0.91778000  0.80036000  1
  O  O339  1  0.69831000  0.17972000  0.25626000  1
  O  O340  1  0.19487000  0.85018000  0.62900000  1
  O  O341  1  0.17345000  0.76423000  0.64749000  1
  O  O342  1  0.88783000  0.06701000  0.28775000  1
  O  O343  1  0.98052000  0.08222000  0.19964000  1
  O  O344  1  0.13429000  0.82028000  0.74374000  1
  O  O345  1  0.32595000  0.62900000  0.85018000  1
  O  O346  1  0.41483000  0.64749000  0.76423000  1
  O  O347  1  0.75741000  0.28775000  0.06701000  1
  O  O348  1  0.73762000  0.19964000  0.08222000  1
  O  O349  1  0.30169000  0.74374000  0.82028000  1
  O  O350  1  0.19487000  0.62900000  0.85018000  1
  O  O351  1  0.17345000  0.64749000  0.76423000  1
  O  O352  1  0.88783000  0.28775000  0.06701000  1
  O  O353  1  0.98052000  0.19964000  0.08222000  1
  O  O354  1  0.13429000  0.74374000  0.82028000  1
  O  O355  1  0.32595000  0.85018000  0.62900000  1
  O  O356  1  0.41483000  0.76423000  0.64749000  1
  O  O357  1  0.75741000  0.06701000  0.28775000  1
  O  O358  1  0.73762000  0.08222000  0.19964000  1
  O  O359  1  0.30169000  0.82028000  0.74374000  1
  O  O360  1  0.80513000  0.14982000  0.37100000  1
  O  O361  1  0.82655000  0.23577000  0.35251000  1
  O  O362  1  0.11217000  0.93299000  0.71225000  1
  O  O363  1  0.01948000  0.91778000  0.80036000  1
  O  O364  1  0.86571000  0.17972000  0.25626000  1
  O  O365  1  0.67405000  0.37100000  0.14982000  1
  O  O366  1  0.58517000  0.35251000  0.23577000  1
  O  O367  1  0.24259000  0.71225000  0.93299000  1
  O  O368  1  0.26238000  0.80036000  0.91778000  1
  O  O369  1  0.69831000  0.25626000  0.17972000  1
  O  O370  1  0.83341000  0.20493000  0.12825000  1
  O  O371  1  0.72952000  0.30863000  0.23233000  1
  O  O372  1  0.83341000  0.12825000  0.20493000  1
  O  O373  1  0.72952000  0.23233000  0.30863000  1
  O  O374  1  0.16659000  0.87175000  0.79507000  1
  O  O375  1  0.27048000  0.76767000  0.69137000  1
  O  O376  1  0.16659000  0.79507000  0.87175000  1
  O  O377  1  0.27048000  0.69137000  0.76767000  1
  O  O378  1  0.93481000  0.25199000  0.25199000  1
  O  O379  1  0.00219000  0.18361000  0.18361000  1
  O  O380  1  0.72167000  0.33373000  0.33373000  1
  O  O381  1  0.95186000  0.10274000  0.10274000  1
  O  O382  1  0.56121000  0.25199000  0.25199000  1
  O  O383  1  0.63059000  0.18361000  0.18361000  1
  O  O384  1  0.61087000  0.33373000  0.33373000  1
  O  O385  1  0.84266000  0.10274000  0.10274000  1
  O  O386  1  0.06519000  0.74801000  0.74801000  1
  O  O387  1  0.99781000  0.81639000  0.81639000  1
  O  O388  1  0.27833000  0.66627000  0.66627000  1
  O  O389  1  0.04814000  0.89726000  0.89726000  1
  O  O390  1  0.43879000  0.74801000  0.74801000  1
  O  O391  1  0.36941000  0.81639000  0.81639000  1
  O  O392  1  0.38913000  0.66627000  0.66627000  1
  O  O393  1  0.15734000  0.89726000  0.89726000  1
  Zr  Zr394  1  0.78166000  0.29515000  0.14153000  1
  Zr  Zr395  1  0.78166000  0.14153000  0.29515000  1
  Zr  Zr396  1  0.21834000  0.85847000  0.70485000  1
  Zr  Zr397  1  0.21834000  0.70485000  0.85847000  1
  Zr  Zr398  1  0.91818000  0.16592000  0.16592000  1
  Zr  Zr399  1  0.81396000  0.27000000  0.27000000  1
  Zr  Zr400  1  0.74998000  0.16592000  0.16592000  1
  Zr  Zr401  1  0.64604000  0.27000000  0.27000000  1
  Zr  Zr402  1  0.08182000  0.83408000  0.83408000  1
  Zr  Zr403  1  0.18604000  0.73000000  0.73000000  1
  Zr  Zr404  1  0.25002000  0.83408000  0.83408000  1
  Zr  Zr405  1  0.35396000  0.73000000  0.73000000  1
