# generated using pymatgen
data_Zr6H56C107(NO16)2
_symmetry_space_group_name_H-M   'P 1'
_cell_length_a   21.42480000
_cell_length_b   25.45572614
_cell_length_c   25.45572614
_cell_angle_alpha   77.27946380
_cell_angle_beta   65.11333062
_cell_angle_gamma   65.11333062
_symmetry_Int_Tables_number   1
_chemical_formula_structural   Zr6H56C107(NO16)2
_chemical_formula_sum   'Zr12 H112 C214 N4 O64'
_cell_volume   11408.84555322
_cell_formula_units_Z   2
loop_
 _symmetry_equiv_pos_site_id
 _symmetry_equiv_pos_as_xyz
  1  'x, y, z'
loop_
 _atom_site_type_symbol
 _atom_site_label
 _atom_site_symmetry_multiplicity
 _atom_site_fract_x
 _atom_site_fract_y
 _atom_site_fract_z
 _atom_site_occupancy
  C  C0  1  0.95387000  0.24773000  0.05221000  1
  C  C1  1  0.01036000  0.25960000  0.99674000  1
  C  C2  1  0.98958000  0.31233000  0.96491000  1
  C  C3  1  0.04273000  0.32440000  0.91574000  1
  C  C4  1  0.11962000  0.28241000  0.89655000  1
  C  C5  1  0.13477000  0.23310000  0.92416000  1
  C  C6  1  0.08000000  0.22051000  0.97909000  1
  C  C7  1  0.17694000  0.30011000  0.84761000  1
  C  C8  1  0.17676000  0.35526000  0.84662000  1
  C  C9  1  0.22319000  0.37861000  0.80061000  1
  C  C10  1  0.27466000  0.34562000  0.75406000  1
  C  C11  1  0.27688000  0.29099000  0.75245000  1
  C  C12  1  0.22792000  0.26807000  0.79909000  1
  C  C13  1  0.21467000  0.43888000  0.80358000  1
  C  C14  1  0.20286000  0.45966000  0.85462000  1
  C  C15  1  0.19480000  0.51589000  0.85691000  1
  C  C16  1  0.19622000  0.55351000  0.80781000  1
  C  C17  1  0.20996000  0.53274000  0.75664000  1
  C  C18  1  0.21969000  0.47587000  0.75435000  1
  C  C19  1  0.18927000  0.61397000  0.80809000  1
  C  C20  1  0.98906000  0.21820000  0.21820000  1
  C  C21  1  0.05955000  0.21763000  0.21763000  1
  C  C22  1  0.05786000  0.25164000  0.25164000  1
  C  C23  1  0.12350000  0.25120000  0.25120000  1
  C  C24  1  0.18900000  0.21620000  0.21620000  1
  C  C25  1  0.19090000  0.18170000  0.18170000  1
  C  C26  1  0.12510000  0.18260000  0.18260000  1
  C  C27  1  0.25630000  0.21640000  0.21640000  1
  C  C28  1  0.63856000  0.41544000  0.41544000  1
  C  C29  1  0.59748000  0.45672000  0.45672000  1
  C  C30  1  0.03481000  0.02073000  0.02073000  1
  C  C31  1  0.64986000  0.35014000  0.35014000  1
  C  C32  1  0.60522000  0.39478000  0.39478000  1
  C  C33  1  0.52190000  0.47810000  0.47810000  1
  C  C34  1  0.91430000  0.08570000  0.08570000  1
  C  C35  1  0.95886000  0.04114000  0.04114000  1
  C  C36  1  0.74619000  0.05221000  0.24773000  1
  C  C37  1  0.73330000  0.99674000  0.25960000  1
  C  C38  1  0.73318000  0.96491000  0.31233000  1
  C  C39  1  0.71713000  0.91574000  0.32440000  1
  C  C40  1  0.70142000  0.89655000  0.28241000  1
  C  C41  1  0.70797000  0.92416000  0.23310000  1
  C  C42  1  0.72040000  0.97909000  0.22051000  1
  C  C43  1  0.67534000  0.84761000  0.30011000  1
  C  C44  1  0.62136000  0.84662000  0.35526000  1
  C  C45  1  0.59759000  0.80061000  0.37861000  1
  C  C46  1  0.62566000  0.75406000  0.34562000  1
  C  C47  1  0.67968000  0.75245000  0.29099000  1
  C  C48  1  0.70492000  0.79909000  0.26807000  1
  C  C49  1  0.54287000  0.80358000  0.43888000  1
  C  C50  1  0.48286000  0.85462000  0.45966000  1
  C  C51  1  0.43240000  0.85691000  0.51589000  1
  C  C52  1  0.44246000  0.80781000  0.55351000  1
  C  C53  1  0.50066000  0.75664000  0.53274000  1
  C  C54  1  0.55009000  0.75435000  0.47587000  1
  C  C55  1  0.38867000  0.80809000  0.61397000  1
  C  C56  1  0.57454000  0.21820000  0.21820000  1
  C  C57  1  0.50519000  0.21763000  0.21763000  1
  C  C58  1  0.43886000  0.25164000  0.25164000  1
  C  C59  1  0.37410000  0.25120000  0.25120000  1
  C  C60  1  0.37860000  0.21620000  0.21620000  1
  C  C61  1  0.44570000  0.18170000  0.18170000  1
  C  C62  1  0.50970000  0.18260000  0.18260000  1
  C  C63  1  0.31090000  0.21640000  0.21640000  1
  C  C64  1  0.53056000  0.41544000  0.41544000  1
  C  C65  1  0.48908000  0.45672000  0.45672000  1
  C  C66  1  0.92373000  0.02073000  0.02073000  1
  C  C67  1  0.25381000  0.75227000  0.94779000  1
  C  C68  1  0.26670000  0.74040000  0.00326000  1
  C  C69  1  0.26682000  0.68767000  0.03509000  1
  C  C70  1  0.28287000  0.67560000  0.08426000  1
  C  C71  1  0.29858000  0.71759000  0.10345000  1
  C  C72  1  0.29203000  0.76690000  0.07584000  1
  C  C73  1  0.27960000  0.77949000  0.02091000  1
  C  C74  1  0.32466000  0.69989000  0.15239000  1
  C  C75  1  0.37864000  0.64474000  0.15338000  1
  C  C76  1  0.40241000  0.62139000  0.19939000  1
  C  C77  1  0.37434000  0.65438000  0.24594000  1
  C  C78  1  0.32032000  0.70901000  0.24755000  1
  C  C79  1  0.29508000  0.73193000  0.20091000  1
  C  C80  1  0.45713000  0.56112000  0.19642000  1
  C  C81  1  0.51714000  0.54034000  0.14538000  1
  C  C82  1  0.56760000  0.48411000  0.14309000  1
  C  C83  1  0.55754000  0.44649000  0.19219000  1
  C  C84  1  0.49934000  0.46726000  0.24336000  1
  C  C85  1  0.44991000  0.52413000  0.24565000  1
  C  C86  1  0.61133000  0.38603000  0.19191000  1
  C  C87  1  0.42546000  0.78180000  0.78180000  1
  C  C88  1  0.49481000  0.78237000  0.78237000  1
  C  C89  1  0.56114000  0.74836000  0.74836000  1
  C  C90  1  0.62590000  0.74880000  0.74880000  1
  C  C91  1  0.62140000  0.78380000  0.78380000  1
  C  C92  1  0.55430000  0.81830000  0.81830000  1
  C  C93  1  0.49030000  0.81740000  0.81740000  1
  C  C94  1  0.68910000  0.78360000  0.78360000  1
  C  C95  1  0.46944000  0.58456000  0.58456000  1
  C  C96  1  0.51092000  0.54328000  0.54328000  1
  C  C97  1  0.07627000  0.97927000  0.97927000  1
  C  C98  1  0.35014000  0.64986000  0.64986000  1
  C  C99  1  0.39478000  0.60522000  0.60522000  1
  C  C100  1  0.47810000  0.52190000  0.52190000  1
  C  C101  1  0.08570000  0.91430000  0.91430000  1
  C  C102  1  0.04114000  0.95886000  0.95886000  1
  C  C103  1  0.04613000  0.94779000  0.75227000  1
  C  C104  1  0.98964000  0.00326000  0.74040000  1
  C  C105  1  0.01042000  0.03509000  0.68767000  1
  C  C106  1  0.95727000  0.08426000  0.67560000  1
  C  C107  1  0.88038000  0.10345000  0.71759000  1
  C  C108  1  0.86523000  0.07584000  0.76690000  1
  C  C109  1  0.92000000  0.02091000  0.77949000  1
  C  C110  1  0.82306000  0.15239000  0.69989000  1
  C  C111  1  0.82324000  0.15338000  0.64474000  1
  C  C112  1  0.77681000  0.19939000  0.62139000  1
  C  C113  1  0.72534000  0.24594000  0.65438000  1
  C  C114  1  0.72312000  0.24755000  0.70901000  1
  C  C115  1  0.77208000  0.20091000  0.73193000  1
  C  C116  1  0.78533000  0.19642000  0.56112000  1
  C  C117  1  0.79714000  0.14538000  0.54034000  1
  C  C118  1  0.80520000  0.14309000  0.48411000  1
  C  C119  1  0.80378000  0.19219000  0.44649000  1
  C  C120  1  0.79004000  0.24336000  0.46726000  1
  C  C121  1  0.78031000  0.24565000  0.52413000  1
  C  C122  1  0.81073000  0.19191000  0.38603000  1
  C  C123  1  0.01094000  0.78180000  0.78180000  1
  C  C124  1  0.94045000  0.78237000  0.78237000  1
  C  C125  1  0.94214000  0.74836000  0.74836000  1
  C  C126  1  0.87650000  0.74880000  0.74880000  1
  C  C127  1  0.81100000  0.78380000  0.78380000  1
  C  C128  1  0.80910000  0.81830000  0.81830000  1
  C  C129  1  0.87490000  0.81740000  0.81740000  1
  C  C130  1  0.74370000  0.78360000  0.78360000  1
  C  C131  1  0.36144000  0.58456000  0.58456000  1
  C  C132  1  0.40252000  0.54328000  0.54328000  1
  C  C133  1  0.96519000  0.97927000  0.97927000  1
  C  C134  1  0.04613000  0.75227000  0.94779000  1
  C  C135  1  0.98964000  0.74040000  0.00326000  1
  C  C136  1  0.01042000  0.68767000  0.03509000  1
  C  C137  1  0.95727000  0.67560000  0.08426000  1
  C  C138  1  0.88038000  0.71759000  0.10345000  1
  C  C139  1  0.86523000  0.76690000  0.07584000  1
  C  C140  1  0.92000000  0.77949000  0.02091000  1
  C  C141  1  0.82306000  0.69989000  0.15239000  1
  C  C142  1  0.82324000  0.64474000  0.15338000  1
  C  C143  1  0.77681000  0.62139000  0.19939000  1
  C  C144  1  0.72534000  0.65438000  0.24594000  1
  C  C145  1  0.72312000  0.70901000  0.24755000  1
  C  C146  1  0.77208000  0.73193000  0.20091000  1
  C  C147  1  0.78533000  0.56112000  0.19642000  1
  C  C148  1  0.79714000  0.54034000  0.14538000  1
  C  C149  1  0.80520000  0.48411000  0.14309000  1
  C  C150  1  0.80378000  0.44649000  0.19219000  1
  C  C151  1  0.79004000  0.46726000  0.24336000  1
  C  C152  1  0.78031000  0.52413000  0.24565000  1
  C  C153  1  0.81073000  0.38603000  0.19191000  1
  C  C154  1  0.25381000  0.94779000  0.75227000  1
  C  C155  1  0.26670000  0.00326000  0.74040000  1
  C  C156  1  0.26682000  0.03509000  0.68767000  1
  C  C157  1  0.28287000  0.08426000  0.67560000  1
  C  C158  1  0.29858000  0.10345000  0.71759000  1
  C  C159  1  0.29203000  0.07584000  0.76690000  1
  C  C160  1  0.27960000  0.02091000  0.77949000  1
  C  C161  1  0.32466000  0.15239000  0.69989000  1
  C  C162  1  0.37864000  0.15338000  0.64474000  1
  C  C163  1  0.40241000  0.19939000  0.62139000  1
  C  C164  1  0.37434000  0.24594000  0.65438000  1
  C  C165  1  0.32032000  0.24755000  0.70901000  1
  C  C166  1  0.29508000  0.20091000  0.73193000  1
  C  C167  1  0.45713000  0.19642000  0.56112000  1
  C  C168  1  0.51714000  0.14538000  0.54034000  1
  C  C169  1  0.56760000  0.14309000  0.48411000  1
  C  C170  1  0.55754000  0.19219000  0.44649000  1
  C  C171  1  0.49934000  0.24336000  0.46726000  1
  C  C172  1  0.44991000  0.24565000  0.52413000  1
  C  C173  1  0.61133000  0.19191000  0.38603000  1
  C  C174  1  0.74619000  0.24773000  0.05221000  1
  C  C175  1  0.73330000  0.25960000  0.99674000  1
  C  C176  1  0.73318000  0.31233000  0.96491000  1
  C  C177  1  0.71713000  0.32440000  0.91574000  1
  C  C178  1  0.70142000  0.28241000  0.89655000  1
  C  C179  1  0.70797000  0.23310000  0.92416000  1
  C  C180  1  0.72040000  0.22051000  0.97909000  1
  C  C181  1  0.67534000  0.30011000  0.84761000  1
  C  C182  1  0.62136000  0.35526000  0.84662000  1
  C  C183  1  0.59759000  0.37861000  0.80061000  1
  C  C184  1  0.62566000  0.34562000  0.75406000  1
  C  C185  1  0.67968000  0.29099000  0.75245000  1
  C  C186  1  0.70492000  0.26807000  0.79909000  1
  C  C187  1  0.54287000  0.43888000  0.80358000  1
  C  C188  1  0.48286000  0.45966000  0.85462000  1
  C  C189  1  0.43240000  0.51589000  0.85691000  1
  C  C190  1  0.44246000  0.55351000  0.80781000  1
  C  C191  1  0.50066000  0.53274000  0.75664000  1
  C  C192  1  0.55009000  0.47587000  0.75435000  1
  C  C193  1  0.38867000  0.61397000  0.80809000  1
  C  C194  1  0.95387000  0.05221000  0.24773000  1
  C  C195  1  0.01036000  0.99674000  0.25960000  1
  C  C196  1  0.98958000  0.96491000  0.31233000  1
  C  C197  1  0.04273000  0.91574000  0.32440000  1
  C  C198  1  0.11962000  0.89655000  0.28241000  1
  C  C199  1  0.13477000  0.92416000  0.23310000  1
  C  C200  1  0.08000000  0.97909000  0.22051000  1
  C  C201  1  0.17694000  0.84761000  0.30011000  1
  C  C202  1  0.17676000  0.84662000  0.35526000  1
  C  C203  1  0.22319000  0.80061000  0.37861000  1
  C  C204  1  0.27466000  0.75406000  0.34562000  1
  C  C205  1  0.27688000  0.75245000  0.29099000  1
  C  C206  1  0.22792000  0.79909000  0.26807000  1
  C  C207  1  0.21467000  0.80358000  0.43888000  1
  C  C208  1  0.20286000  0.85462000  0.45966000  1
  C  C209  1  0.19480000  0.85691000  0.51589000  1
  C  C210  1  0.19622000  0.80781000  0.55351000  1
  C  C211  1  0.20996000  0.75664000  0.53274000  1
  C  C212  1  0.21969000  0.75435000  0.47587000  1
  C  C213  1  0.18927000  0.80809000  0.61397000  1
  H  H214  1  0.93970000  0.33900000  0.97720000  1
  H  H215  1  0.02990000  0.36000000  0.89400000  1
  H  H216  1  0.18240000  0.20390000  0.90890000  1
  H  H217  1  0.09380000  0.18550000  0.00150000  1
  H  H218  1  0.14300000  0.37800000  0.87920000  1
  H  H219  1  0.30860000  0.36030000  0.72310000  1
  H  H220  1  0.20040000  0.43450000  0.88850000  1
  H  H221  1  0.18830000  0.52890000  0.89170000  1
  H  H222  1  0.21280000  0.55770000  0.72270000  1
  H  H223  1  0.23000000  0.46210000  0.71870000  1
  H  H224  1  0.01160000  0.27640000  0.27640000  1
  H  H225  1  0.12190000  0.27550000  0.27550000  1
  H  H226  1  0.23710000  0.15690000  0.15690000  1
  H  H227  1  0.12650000  0.15830000  0.15830000  1
  H  H228  1  0.69110000  0.40140000  0.40140000  1
  H  H229  1  0.62250000  0.47050000  0.47050000  1
  H  H230  1  0.05900000  0.03490000  0.03490000  1
  H  H231  1  0.21800000  0.19050000  0.80950000  1
  H  H232  1  0.74410000  0.97720000  0.33900000  1
  H  H233  1  0.71610000  0.89400000  0.36000000  1
  H  H234  1  0.70480000  0.90890000  0.20390000  1
  H  H235  1  0.71920000  0.00150000  0.18550000  1
  H  H236  1  0.59980000  0.87920000  0.37800000  1
  H  H237  1  0.60800000  0.72310000  0.36030000  1
  H  H238  1  0.47660000  0.88850000  0.43450000  1
  H  H239  1  0.39110000  0.89170000  0.52890000  1
  H  H240  1  0.50680000  0.72270000  0.55770000  1
  H  H241  1  0.58920000  0.71870000  0.46210000  1
  H  H242  1  0.43560000  0.27640000  0.27640000  1
  H  H243  1  0.32710000  0.27550000  0.27550000  1
  H  H244  1  0.44910000  0.15690000  0.15690000  1
  H  H245  1  0.55690000  0.15830000  0.15830000  1
  H  H246  1  0.50610000  0.40140000  0.40140000  1
  H  H247  1  0.43650000  0.47050000  0.47050000  1
  H  H248  1  0.87120000  0.03490000  0.03490000  1
  H  H249  1  0.78200000  0.80950000  0.19050000  1
  H  H250  1  0.25590000  0.66100000  0.02280000  1
  H  H251  1  0.28390000  0.64000000  0.10600000  1
  H  H252  1  0.29520000  0.79610000  0.09110000  1
  H  H253  1  0.28080000  0.81450000  0.99850000  1
  H  H254  1  0.40020000  0.62200000  0.12080000  1
  H  H255  1  0.39200000  0.63970000  0.27690000  1
  H  H256  1  0.52340000  0.56550000  0.11150000  1
  H  H257  1  0.60890000  0.47110000  0.10830000  1
  H  H258  1  0.49320000  0.44230000  0.27730000  1
  H  H259  1  0.41080000  0.53790000  0.28130000  1
  H  H260  1  0.56440000  0.72360000  0.72360000  1
  H  H261  1  0.67290000  0.72450000  0.72450000  1
  H  H262  1  0.55090000  0.84310000  0.84310000  1
  H  H263  1  0.44310000  0.84170000  0.84170000  1
  H  H264  1  0.49390000  0.59860000  0.59860000  1
  H  H265  1  0.56350000  0.52950000  0.52950000  1
  H  H266  1  0.12880000  0.96510000  0.96510000  1
  H  H267  1  0.21800000  0.80950000  0.19050000  1
  H  H268  1  0.06030000  0.02280000  0.66100000  1
  H  H269  1  0.97010000  0.10600000  0.64000000  1
  H  H270  1  0.81760000  0.09110000  0.79610000  1
  H  H271  1  0.90620000  0.99850000  0.81450000  1
  H  H272  1  0.85700000  0.12080000  0.62200000  1
  H  H273  1  0.69140000  0.27690000  0.63970000  1
  H  H274  1  0.79960000  0.11150000  0.56550000  1
  H  H275  1  0.81170000  0.10830000  0.47110000  1
  H  H276  1  0.78720000  0.27730000  0.44230000  1
  H  H277  1  0.77000000  0.28130000  0.53790000  1
  H  H278  1  0.98840000  0.72360000  0.72360000  1
  H  H279  1  0.87810000  0.72450000  0.72450000  1
  H  H280  1  0.76290000  0.84310000  0.84310000  1
  H  H281  1  0.87350000  0.84170000  0.84170000  1
  H  H282  1  0.30890000  0.59860000  0.59860000  1
  H  H283  1  0.37750000  0.52950000  0.52950000  1
  H  H284  1  0.94100000  0.96510000  0.96510000  1
  H  H285  1  0.78200000  0.19050000  0.80950000  1
  H  H286  1  0.06030000  0.66100000  0.02280000  1
  H  H287  1  0.97010000  0.64000000  0.10600000  1
  H  H288  1  0.81760000  0.79610000  0.09110000  1
  H  H289  1  0.90620000  0.81450000  0.99850000  1
  H  H290  1  0.85700000  0.62200000  0.12080000  1
  H  H291  1  0.69140000  0.63970000  0.27690000  1
  H  H292  1  0.79960000  0.56550000  0.11150000  1
  H  H293  1  0.81170000  0.47110000  0.10830000  1
  H  H294  1  0.78720000  0.44230000  0.27730000  1
  H  H295  1  0.77000000  0.53790000  0.28130000  1
  H  H296  1  0.25590000  0.02280000  0.66100000  1
  H  H297  1  0.28390000  0.10600000  0.64000000  1
  H  H298  1  0.29520000  0.09110000  0.79610000  1
  H  H299  1  0.28080000  0.99850000  0.81450000  1
  H  H300  1  0.40020000  0.12080000  0.62200000  1
  H  H301  1  0.39200000  0.27690000  0.63970000  1
  H  H302  1  0.52340000  0.11150000  0.56550000  1
  H  H303  1  0.60890000  0.10830000  0.47110000  1
  H  H304  1  0.49320000  0.27730000  0.44230000  1
  H  H305  1  0.41080000  0.28130000  0.53790000  1
  H  H306  1  0.74410000  0.33900000  0.97720000  1
  H  H307  1  0.71610000  0.36000000  0.89400000  1
  H  H308  1  0.70480000  0.20390000  0.90890000  1
  H  H309  1  0.71920000  0.18550000  0.00150000  1
  H  H310  1  0.59980000  0.37800000  0.87920000  1
  H  H311  1  0.60800000  0.36030000  0.72310000  1
  H  H312  1  0.47660000  0.43450000  0.88850000  1
  H  H313  1  0.39110000  0.52890000  0.89170000  1
  H  H314  1  0.50680000  0.55770000  0.72270000  1
  H  H315  1  0.58920000  0.46210000  0.71870000  1
  H  H316  1  0.93970000  0.97720000  0.33900000  1
  H  H317  1  0.02990000  0.89400000  0.36000000  1
  H  H318  1  0.18240000  0.90890000  0.20390000  1
  H  H319  1  0.09380000  0.00150000  0.18550000  1
  H  H320  1  0.14300000  0.87920000  0.37800000  1
  H  H321  1  0.30860000  0.72310000  0.36030000  1
  H  H322  1  0.20040000  0.88850000  0.43450000  1
  H  H323  1  0.18830000  0.89170000  0.52890000  1
  H  H324  1  0.21280000  0.72270000  0.55770000  1
  H  H325  1  0.23000000  0.71870000  0.46210000  1
  N  N326  1  0.24080000  0.21351000  0.78649000  1
  N  N327  1  0.75920000  0.78649000  0.21351000  1
  N  N328  1  0.24080000  0.78649000  0.21351000  1
  N  N329  1  0.75920000  0.21351000  0.78649000  1
  O  O330  1  0.97777000  0.19946000  0.08152000  1
  O  O331  1  0.88610000  0.28950000  0.06516000  1
  O  O332  1  0.19620000  0.62736000  0.85168000  1
  O  O333  1  0.17575000  0.64732000  0.76454000  1
  O  O334  1  0.86275000  0.25683000  0.17863000  1
  O  O335  1  0.99669000  0.18384000  0.18384000  1
  O  O336  1  0.93006000  0.25142000  0.25142000  1
  O  O337  1  0.71882000  0.33329000  0.33329000  1
  O  O338  1  0.95031000  0.10248000  0.10248000  1
  O  O339  1  0.83316000  0.20588000  0.12780000  1
  O  O340  1  0.73087000  0.30752000  0.23074000  1
  O  O341  1  0.74125000  0.08152000  0.19946000  1
  O  O342  1  0.75924000  0.06516000  0.28950000  1
  O  O343  1  0.32476000  0.85168000  0.62736000  1
  O  O344  1  0.41239000  0.76454000  0.64732000  1
  O  O345  1  0.70179000  0.17863000  0.25683000  1
  O  O346  1  0.63563000  0.18384000  0.18384000  1
  O  O347  1  0.56710000  0.25142000  0.25142000  1
  O  O348  1  0.61460000  0.33329000  0.33329000  1
  O  O349  1  0.84473000  0.10248000  0.10248000  1
  O  O350  1  0.83316000  0.12780000  0.20588000  1
  O  O351  1  0.73087000  0.23074000  0.30752000  1
  O  O352  1  0.25875000  0.80054000  0.91848000  1
  O  O353  1  0.24076000  0.71050000  0.93484000  1
  O  O354  1  0.67524000  0.37264000  0.14832000  1
  O  O355  1  0.58761000  0.35268000  0.23546000  1
  O  O356  1  0.29821000  0.74317000  0.82137000  1
  O  O357  1  0.36437000  0.81616000  0.81616000  1
  O  O358  1  0.43290000  0.74858000  0.74858000  1
  O  O359  1  0.38542167  0.66668833  0.66668833  1
  O  O360  1  0.15527000  0.89752000  0.89752000  1
  O  O361  1  0.16684000  0.79412000  0.87220000  1
  O  O362  1  0.26913000  0.69248000  0.76926000  1
  O  O363  1  0.02223000  0.91848000  0.80054000  1
  O  O364  1  0.11390000  0.93484000  0.71050000  1
  O  O365  1  0.80380000  0.14832000  0.37264000  1
  O  O366  1  0.82425000  0.23546000  0.35268000  1
  O  O367  1  0.13725000  0.82137000  0.74317000  1
  O  O368  1  0.00331000  0.81616000  0.81616000  1
  O  O369  1  0.06994000  0.74858000  0.74858000  1
  O  O370  1  0.28120167  0.66668833  0.66668833  1
  O  O371  1  0.04969000  0.89752000  0.89752000  1
  O  O372  1  0.16684000  0.87220000  0.79412000  1
  O  O373  1  0.26913000  0.76926000  0.69248000  1
  O  O374  1  0.02223000  0.80054000  0.91848000  1
  O  O375  1  0.11390000  0.71050000  0.93484000  1
  O  O376  1  0.80380000  0.37264000  0.14832000  1
  O  O377  1  0.82425000  0.35268000  0.23546000  1
  O  O378  1  0.13725000  0.74317000  0.82137000  1
  O  O379  1  0.25875000  0.91848000  0.80054000  1
  O  O380  1  0.24076000  0.93484000  0.71050000  1
  O  O381  1  0.67524000  0.14832000  0.37264000  1
  O  O382  1  0.58761000  0.23546000  0.35268000  1
  O  O383  1  0.29821000  0.82137000  0.74317000  1
  O  O384  1  0.74125000  0.19946000  0.08152000  1
  O  O385  1  0.75924000  0.28950000  0.06516000  1
  O  O386  1  0.32476000  0.62736000  0.85168000  1
  O  O387  1  0.41239000  0.64732000  0.76454000  1
  O  O388  1  0.70179000  0.25683000  0.17863000  1
  O  O389  1  0.97777000  0.08152000  0.19946000  1
  O  O390  1  0.88610000  0.06516000  0.28950000  1
  O  O391  1  0.19620000  0.85168000  0.62736000  1
  O  O392  1  0.17575000  0.76454000  0.64732000  1
  O  O393  1  0.86275000  0.17863000  0.25683000  1
  Zr  Zr394  1  0.91605000  0.16569000  0.16569000  1
  Zr  Zr395  1  0.81187000  0.26968000  0.26968000  1
  Zr  Zr396  1  0.78183000  0.29613000  0.14021000  1
  Zr  Zr397  1  0.75257000  0.16569000  0.16569000  1
  Zr  Zr398  1  0.64877000  0.26968000  0.26968000  1
  Zr  Zr399  1  0.78183000  0.14021000  0.29613000  1
  Zr  Zr400  1  0.24743000  0.83431000  0.83431000  1
  Zr  Zr401  1  0.35123000  0.73032000  0.73032000  1
  Zr  Zr402  1  0.21817000  0.70387000  0.85979000  1
  Zr  Zr403  1  0.08395000  0.83431000  0.83431000  1
  Zr  Zr404  1  0.18813000  0.73032000  0.73032000  1
  Zr  Zr405  1  0.21817000  0.85979000  0.70387000  1
