# generated using pymatgen
data_Zr6H64C113(NO16)2
_symmetry_space_group_name_H-M   'P 1'
_cell_length_a   23.21500000
_cell_length_b   25.50938004
_cell_length_c   25.50938004
_cell_angle_alpha   73.80675385
_cell_angle_beta   62.93321925
_cell_angle_gamma   62.93321925
_symmetry_Int_Tables_number   1
_chemical_formula_structural   Zr6H64C113(NO16)2
_chemical_formula_sum   'Zr12 H128 C226 N4 O64'
_cell_volume   11929.56558119
_cell_formula_units_Z   2
loop_
 _symmetry_equiv_pos_site_id
 _symmetry_equiv_pos_as_xyz
  1  'x, y, z'
loop_
 _atom_site_type_symbol
 _atom_site_label
 _atom_site_symmetry_multiplicity
 _atom_site_fract_x
 _atom_site_fract_y
 _atom_site_fract_z
 _atom_site_occupancy
  C  C0  1  0.11680000  0.69080000  0.88620000  1
  C  C1  1  0.74830000  0.45010000  0.25550000  1
  C  C2  1  0.07220000  0.63770000  0.98850000  1
  C  C3  1  0.87300000  0.74460000  0.15600000  1
  C  C4  1  0.87610000  0.65300000  0.14460000  1
  C  C5  1  0.00880000  0.74280000  0.97040000  1
  C  C6  1  0.81350000  0.74660000  0.20940000  1
  C  C7  1  0.76010000  0.52600000  0.27940000  1
  C  C8  1  0.06420000  0.68860000  0.95060000  1
  C  C9  1  0.78740000  0.58630000  0.17190000  1
  C  C10  1  0.01660000  0.63990000  0.04490000  1
  C  C11  1  0.90110000  0.69830000  0.12130000  1
  C  C12  1  0.77160000  0.58090000  0.27010000  1
  C  C13  1  0.75900000  0.50640000  0.23920000  1
  C  C14  1  0.78880000  0.60910000  0.21690000  1
  C  C15  1  0.76530000  0.53700000  0.18200000  1
  C  C16  1  0.95660000  0.74740000  0.02620000  1
  C  C17  1  0.81700000  0.65480000  0.19600000  1
  C  C18  1  0.95610000  0.69380000  0.06420000  1
  C  C19  1  0.78750000  0.70270000  0.23070000  1
  C  C20  1  0.16696000  0.26689000  0.33871000  1
  C  C21  1  0.30620000  0.88620000  0.69080000  1
  C  C22  1  0.54610000  0.25550000  0.45010000  1
  C  C23  1  0.30160000  0.98850000  0.63770000  1
  C  C24  1  0.22640000  0.15600000  0.74460000  1
  C  C25  1  0.32630000  0.14460000  0.65300000  1
  C  C26  1  0.27800000  0.97040000  0.74280000  1
  C  C27  1  0.23050000  0.20940000  0.74660000  1
  C  C28  1  0.43450000  0.27940000  0.52600000  1
  C  C29  1  0.29660000  0.95060000  0.68860000  1
  C  C30  1  0.45440000  0.17190000  0.58630000  1
  C  C31  1  0.29860000  0.04490000  0.63990000  1
  C  C32  1  0.27930000  0.12130000  0.69830000  1
  C  C33  1  0.37740000  0.27010000  0.58090000  1
  C  C34  1  0.49540000  0.23920000  0.50640000  1
  C  C35  1  0.38520000  0.21690000  0.60910000  1
  C  C36  1  0.51570000  0.18200000  0.53700000  1
  C  C37  1  0.26980000  0.02620000  0.74740000  1
  C  C38  1  0.33220000  0.19600000  0.65480000  1
  C  C39  1  0.28590000  0.06420000  0.69380000  1
  C  C40  1  0.27910000  0.23070000  0.70270000  1
  C  C41  1  0.22744000  0.33871000  0.26689000  1
  C  C42  1  0.88320000  0.11380000  0.30920000  1
  C  C43  1  0.25170000  0.74450000  0.54990000  1
  C  C44  1  0.92780000  0.01150000  0.36230000  1
  C  C45  1  0.12700000  0.84400000  0.25540000  1
  C  C46  1  0.12390000  0.85540000  0.34700000  1
  C  C47  1  0.99120000  0.02960000  0.25720000  1
  C  C48  1  0.18650000  0.79060000  0.25340000  1
  C  C49  1  0.23990000  0.72060000  0.47400000  1
  C  C50  1  0.93580000  0.04940000  0.31140000  1
  C  C51  1  0.21260000  0.82810000  0.41370000  1
  C  C52  1  0.98340000  0.95510000  0.36010000  1
  C  C53  1  0.09890000  0.87870000  0.30170000  1
  C  C54  1  0.22840000  0.72990000  0.41910000  1
  C  C55  1  0.24100000  0.76080000  0.49360000  1
  C  C56  1  0.21120000  0.78310000  0.39090000  1
  C  C57  1  0.23470000  0.81800000  0.46300000  1
  C  C58  1  0.04340000  0.97380000  0.25260000  1
  C  C59  1  0.18300000  0.80400000  0.34520000  1
  C  C60  1  0.04390000  0.93580000  0.30620000  1
  C  C61  1  0.21250000  0.76930000  0.29730000  1
  C  C62  1  0.83304000  0.66129000  0.73311000  1
  C  C63  1  0.69380000  0.30920000  0.11380000  1
  C  C64  1  0.45390000  0.54990000  0.74450000  1
  C  C65  1  0.69840000  0.36230000  0.01150000  1
  C  C66  1  0.77360000  0.25540000  0.84400000  1
  C  C67  1  0.67370000  0.34700000  0.85540000  1
  C  C68  1  0.72200000  0.25720000  0.02960000  1
  C  C69  1  0.76950000  0.25340000  0.79060000  1
  C  C70  1  0.56550000  0.47400000  0.72060000  1
  C  C71  1  0.70340000  0.31140000  0.04940000  1
  C  C72  1  0.54560000  0.41370000  0.82810000  1
  C  C73  1  0.70140000  0.36010000  0.95510000  1
  C  C74  1  0.72070000  0.30170000  0.87870000  1
  C  C75  1  0.62260000  0.41910000  0.72990000  1
  C  C76  1  0.50460000  0.49360000  0.76080000  1
  C  C77  1  0.61480000  0.39090000  0.78310000  1
  C  C78  1  0.48430000  0.46300000  0.81800000  1
  C  C79  1  0.73020000  0.25260000  0.97380000  1
  C  C80  1  0.66780000  0.34520000  0.80400000  1
  C  C81  1  0.71410000  0.30620000  0.93580000  1
  C  C82  1  0.72090000  0.29730000  0.76930000  1
  C  C83  1  0.77256000  0.73311000  0.66129000  1
  C  C84  1  0.88320000  0.30920000  0.11380000  1
  C  C85  1  0.25170000  0.54990000  0.74450000  1
  C  C86  1  0.92780000  0.36230000  0.01150000  1
  C  C87  1  0.12700000  0.25540000  0.84400000  1
  C  C88  1  0.12390000  0.34700000  0.85540000  1
  C  C89  1  0.99120000  0.25720000  0.02960000  1
  C  C90  1  0.18650000  0.25340000  0.79060000  1
  C  C91  1  0.23990000  0.47400000  0.72060000  1
  C  C92  1  0.93580000  0.31140000  0.04940000  1
  C  C93  1  0.21260000  0.41370000  0.82810000  1
  C  C94  1  0.98340000  0.36010000  0.95510000  1
  C  C95  1  0.09890000  0.30170000  0.87870000  1
  C  C96  1  0.22840000  0.41910000  0.72990000  1
  C  C97  1  0.24100000  0.49360000  0.76080000  1
  C  C98  1  0.21120000  0.39090000  0.78310000  1
  C  C99  1  0.23470000  0.46300000  0.81800000  1
  C  C100  1  0.04340000  0.25260000  0.97380000  1
  C  C101  1  0.18300000  0.34520000  0.80400000  1
  C  C102  1  0.04390000  0.30620000  0.93580000  1
  C  C103  1  0.21250000  0.29730000  0.76930000  1
  C  C104  1  0.83304000  0.73311000  0.66129000  1
  C  C105  1  0.69380000  0.11380000  0.30920000  1
  C  C106  1  0.45390000  0.74450000  0.54990000  1
  C  C107  1  0.69840000  0.01150000  0.36230000  1
  C  C108  1  0.77360000  0.84400000  0.25540000  1
  C  C109  1  0.67370000  0.85540000  0.34700000  1
  C  C110  1  0.72200000  0.02960000  0.25720000  1
  C  C111  1  0.76950000  0.79060000  0.25340000  1
  C  C112  1  0.56550000  0.72060000  0.47400000  1
  C  C113  1  0.70340000  0.04940000  0.31140000  1
  C  C114  1  0.54560000  0.82810000  0.41370000  1
  C  C115  1  0.70140000  0.95510000  0.36010000  1
  C  C116  1  0.72070000  0.87870000  0.30170000  1
  C  C117  1  0.62260000  0.72990000  0.41910000  1
  C  C118  1  0.50460000  0.76080000  0.49360000  1
  C  C119  1  0.61480000  0.78310000  0.39090000  1
  C  C120  1  0.48430000  0.81800000  0.46300000  1
  C  C121  1  0.73020000  0.97380000  0.25260000  1
  C  C122  1  0.66780000  0.80400000  0.34520000  1
  C  C123  1  0.71410000  0.93580000  0.30620000  1
  C  C124  1  0.72090000  0.76930000  0.29730000  1
  C  C125  1  0.77256000  0.66129000  0.73311000  1
  C  C126  1  0.11680000  0.88620000  0.69080000  1
  C  C127  1  0.74830000  0.25550000  0.45010000  1
  C  C128  1  0.07220000  0.98850000  0.63770000  1
  C  C129  1  0.87300000  0.15600000  0.74460000  1
  C  C130  1  0.87610000  0.14460000  0.65300000  1
  C  C131  1  0.00880000  0.97040000  0.74280000  1
  C  C132  1  0.81350000  0.20940000  0.74660000  1
  C  C133  1  0.76010000  0.27940000  0.52600000  1
  C  C134  1  0.06420000  0.95060000  0.68860000  1
  C  C135  1  0.78740000  0.17190000  0.58630000  1
  C  C136  1  0.01660000  0.04490000  0.63990000  1
  C  C137  1  0.90110000  0.12130000  0.69830000  1
  C  C138  1  0.77160000  0.27010000  0.58090000  1
  C  C139  1  0.75900000  0.23920000  0.50640000  1
  C  C140  1  0.78880000  0.21690000  0.60910000  1
  C  C141  1  0.76530000  0.18200000  0.53700000  1
  C  C142  1  0.95660000  0.02620000  0.74740000  1
  C  C143  1  0.81700000  0.19600000  0.65480000  1
  C  C144  1  0.95610000  0.06420000  0.69380000  1
  C  C145  1  0.78750000  0.23070000  0.70270000  1
  C  C146  1  0.16696000  0.33871000  0.26689000  1
  C  C147  1  0.30620000  0.69080000  0.88620000  1
  C  C148  1  0.54610000  0.45010000  0.25550000  1
  C  C149  1  0.30160000  0.63770000  0.98850000  1
  C  C150  1  0.22640000  0.74460000  0.15600000  1
  C  C151  1  0.32630000  0.65300000  0.14460000  1
  C  C152  1  0.27800000  0.74280000  0.97040000  1
  C  C153  1  0.23050000  0.74660000  0.20940000  1
  C  C154  1  0.43450000  0.52600000  0.27940000  1
  C  C155  1  0.29660000  0.68860000  0.95060000  1
  C  C156  1  0.45440000  0.58630000  0.17190000  1
  C  C157  1  0.29860000  0.63990000  0.04490000  1
  C  C158  1  0.27930000  0.69830000  0.12130000  1
  C  C159  1  0.37740000  0.58090000  0.27010000  1
  C  C160  1  0.49540000  0.50640000  0.23920000  1
  C  C161  1  0.38520000  0.60910000  0.21690000  1
  C  C162  1  0.51570000  0.53700000  0.18200000  1
  C  C163  1  0.26980000  0.74740000  0.02620000  1
  C  C164  1  0.33220000  0.65480000  0.19600000  1
  C  C165  1  0.28590000  0.69380000  0.06420000  1
  C  C166  1  0.27910000  0.70270000  0.23070000  1
  C  C167  1  0.22744000  0.26689000  0.33871000  1
  C  C168  1  0.96260000  0.08570000  0.08570000  1
  C  C169  1  0.57120000  0.48040000  0.48040000  1
  C  C170  1  0.00770000  0.04380000  0.04380000  1
  C  C171  1  0.90930000  0.28360000  0.28360000  1
  C  C172  1  0.96660000  0.28380000  0.28380000  1
  C  C173  1  0.02360000  0.31960000  0.31960000  1
  C  C174  1  0.03530000  0.24970000  0.24970000  1
  C  C175  1  0.09220000  0.28550000  0.28550000  1
  C  C176  1  0.09450000  0.25060000  0.25060000  1
  C  C177  1  0.96440000  0.31870000  0.31870000  1
  C  C178  1  0.15610000  0.28560000  0.28560000  1
  C  C179  1  0.86600000  0.08570000  0.08570000  1
  C  C180  1  0.46800000  0.48040000  0.48040000  1
  C  C181  1  0.90470000  0.04380000  0.04380000  1
  C  C182  1  0.52350000  0.28360000  0.28360000  1
  C  C183  1  0.46580000  0.28380000  0.28380000  1
  C  C184  1  0.33720000  0.31960000  0.31960000  1
  C  C185  1  0.46530000  0.24970000  0.24970000  1
  C  C186  1  0.33680000  0.28550000  0.28550000  1
  C  C187  1  0.40430000  0.25060000  0.25060000  1
  C  C188  1  0.39820000  0.31870000  0.31870000  1
  C  C189  1  0.27270000  0.28560000  0.28560000  1
  C  C190  1  0.03740000  0.91430000  0.91430000  1
  C  C191  1  0.42880000  0.51960000  0.51960000  1
  C  C192  1  0.99230000  0.95620000  0.95620000  1
  C  C193  1  0.09070000  0.71640000  0.71640000  1
  C  C194  1  0.03340000  0.71620000  0.71620000  1
  C  C195  1  0.97640000  0.68040000  0.68040000  1
  C  C196  1  0.96470000  0.75030000  0.75030000  1
  C  C197  1  0.90780000  0.71450000  0.71450000  1
  C  C198  1  0.90550000  0.74940000  0.74940000  1
  C  C199  1  0.03560000  0.68130000  0.68130000  1
  C  C200  1  0.84390000  0.71440000  0.71440000  1
  C  C201  1  0.13400000  0.91430000  0.91430000  1
  C  C202  1  0.53200000  0.51960000  0.51960000  1
  C  C203  1  0.09530000  0.95620000  0.95620000  1
  C  C204  1  0.47650000  0.71640000  0.71640000  1
  C  C205  1  0.53420000  0.71620000  0.71620000  1
  C  C206  1  0.66280000  0.68040000  0.68040000  1
  C  C207  1  0.53470000  0.75030000  0.75030000  1
  C  C208  1  0.66320000  0.71450000  0.71450000  1
  C  C209  1  0.59570000  0.74940000  0.74940000  1
  C  C210  1  0.60180000  0.68130000  0.68130000  1
  C  C211  1  0.72730000  0.71440000  0.71440000  1
  C  C212  1  0.53980000  0.46020000  0.46020000  1
  C  C213  1  0.58610000  0.41390000  0.41390000  1
  C  C214  1  0.85040000  0.14960000  0.14960000  1
  C  C215  1  0.97630000  0.02370000  0.02370000  1
  C  C216  1  0.89450000  0.10550000  0.10550000  1
  C  C217  1  0.46020000  0.53980000  0.53980000  1
  C  C218  1  0.41390000  0.58610000  0.58610000  1
  C  C219  1  0.14960000  0.85040000  0.85040000  1
  C  C220  1  0.02370000  0.97630000  0.97630000  1
  C  C221  1  0.10550000  0.89450000  0.89450000  1
  C  C222  1  0.11700500  0.24227500  0.39118500  1
  C  C223  1  0.25072500  0.38999500  0.24108500  1
  C  C224  1  0.74927500  0.61000500  0.75891500  1
  C  C225  1  0.88299500  0.75772500  0.60881500  1
  H  H226  1  0.11300000  0.60270000  0.97750000  1
  H  H227  1  0.89270000  0.77350000  0.14430000  1
  H  H228  1  0.90100000  0.61860000  0.12400000  1
  H  H229  1  0.00750000  0.77770000  0.94410000  1
  H  H230  1  0.75330000  0.50430000  0.31710000  1
  H  H231  1  0.01930000  0.60470000  0.07070000  1
  H  H232  1  0.76660000  0.59600000  0.30280000  1
  H  H233  1  0.75660000  0.52690000  0.15390000  1
  H  H234  1  0.92190000  0.78470000  0.03930000  1
  H  H235  1  0.30680000  0.97750000  0.60270000  1
  H  H236  1  0.18950000  0.14430000  0.77350000  1
  H  H237  1  0.35640000  0.12400000  0.61860000  1
  H  H238  1  0.27070000  0.94410000  0.77770000  1
  H  H239  1  0.42530000  0.31710000  0.50430000  1
  H  H240  1  0.30530000  0.07070000  0.60470000  1
  H  H241  1  0.33460000  0.30280000  0.59600000  1
  H  H242  1  0.56260000  0.15390000  0.52690000  1
  H  H243  1  0.25410000  0.03930000  0.78470000  1
  H  H244  1  0.88700000  0.02250000  0.39730000  1
  H  H245  1  0.10730000  0.85570000  0.22650000  1
  H  H246  1  0.09900000  0.87600000  0.38140000  1
  H  H247  1  0.99250000  0.05590000  0.22230000  1
  H  H248  1  0.24670000  0.68290000  0.49570000  1
  H  H249  1  0.98070000  0.92930000  0.39530000  1
  H  H250  1  0.23340000  0.69720000  0.40400000  1
  H  H251  1  0.24340000  0.84610000  0.47310000  1
  H  H252  1  0.07810000  0.96070000  0.21530000  1
  H  H253  1  0.69320000  0.39730000  0.02250000  1
  H  H254  1  0.81050000  0.22650000  0.85570000  1
  H  H255  1  0.64360000  0.38140000  0.87600000  1
  H  H256  1  0.72930000  0.22230000  0.05590000  1
  H  H257  1  0.57470000  0.49570000  0.68290000  1
  H  H258  1  0.69470000  0.39530000  0.92930000  1
  H  H259  1  0.66540000  0.40400000  0.69720000  1
  H  H260  1  0.43740000  0.47310000  0.84610000  1
  H  H261  1  0.74590000  0.21530000  0.96070000  1
  H  H262  1  0.88700000  0.39730000  0.02250000  1
  H  H263  1  0.10730000  0.22650000  0.85570000  1
  H  H264  1  0.09900000  0.38140000  0.87600000  1
  H  H265  1  0.99250000  0.22230000  0.05590000  1
  H  H266  1  0.24670000  0.49570000  0.68290000  1
  H  H267  1  0.98070000  0.39530000  0.92930000  1
  H  H268  1  0.23340000  0.40400000  0.69720000  1
  H  H269  1  0.24340000  0.47310000  0.84610000  1
  H  H270  1  0.07810000  0.21530000  0.96070000  1
  H  H271  1  0.69320000  0.02250000  0.39730000  1
  H  H272  1  0.81050000  0.85570000  0.22650000  1
  H  H273  1  0.64360000  0.87600000  0.38140000  1
  H  H274  1  0.72930000  0.05590000  0.22230000  1
  H  H275  1  0.57470000  0.68290000  0.49570000  1
  H  H276  1  0.69470000  0.92930000  0.39530000  1
  H  H277  1  0.66540000  0.69720000  0.40400000  1
  H  H278  1  0.43740000  0.84610000  0.47310000  1
  H  H279  1  0.74590000  0.96070000  0.21530000  1
  H  H280  1  0.11300000  0.97750000  0.60270000  1
  H  H281  1  0.89270000  0.14430000  0.77350000  1
  H  H282  1  0.90100000  0.12400000  0.61860000  1
  H  H283  1  0.00750000  0.94410000  0.77770000  1
  H  H284  1  0.75330000  0.31710000  0.50430000  1
  H  H285  1  0.01930000  0.07070000  0.60470000  1
  H  H286  1  0.76660000  0.30280000  0.59600000  1
  H  H287  1  0.75660000  0.15390000  0.52690000  1
  H  H288  1  0.92190000  0.03930000  0.78470000  1
  H  H289  1  0.30680000  0.60270000  0.97750000  1
  H  H290  1  0.18950000  0.77350000  0.14430000  1
  H  H291  1  0.35640000  0.61860000  0.12400000  1
  H  H292  1  0.27070000  0.77770000  0.94410000  1
  H  H293  1  0.42530000  0.50430000  0.31710000  1
  H  H294  1  0.30530000  0.60470000  0.07070000  1
  H  H295  1  0.33460000  0.59600000  0.30280000  1
  H  H296  1  0.56260000  0.52690000  0.15390000  1
  H  H297  1  0.25410000  0.78470000  0.03930000  1
  H  H298  1  0.98290000  0.10040000  0.10040000  1
  H  H299  1  0.62080000  0.46610000  0.46610000  1
  H  H300  1  0.05710000  0.03020000  0.03020000  1
  H  H301  1  0.01670000  0.34490000  0.34490000  1
  H  H302  1  0.04200000  0.22450000  0.22450000  1
  H  H303  1  0.13910000  0.22590000  0.22590000  1
  H  H304  1  0.91970000  0.34340000  0.34340000  1
  H  H305  1  0.81630000  0.10040000  0.10040000  1
  H  H306  1  0.44700000  0.46610000  0.46610000  1
  H  H307  1  0.88250000  0.03020000  0.03020000  1
  H  H308  1  0.29350000  0.34490000  0.34490000  1
  H  H309  1  0.50900000  0.22450000  0.22450000  1
  H  H310  1  0.40910000  0.22590000  0.22590000  1
  H  H311  1  0.39350000  0.34340000  0.34340000  1
  H  H312  1  0.01710000  0.89960000  0.89960000  1
  H  H313  1  0.37920000  0.53390000  0.53390000  1
  H  H314  1  0.94290000  0.96980000  0.96980000  1
  H  H315  1  0.98330000  0.65510000  0.65510000  1
  H  H316  1  0.95800000  0.77550000  0.77550000  1
  H  H317  1  0.86090000  0.77410000  0.77410000  1
  H  H318  1  0.08030000  0.65660000  0.65660000  1
  H  H319  1  0.18370000  0.89960000  0.89960000  1
  H  H320  1  0.55300000  0.53390000  0.53390000  1
  H  H321  1  0.11750000  0.96980000  0.96980000  1
  H  H322  1  0.70650000  0.65510000  0.65510000  1
  H  H323  1  0.49100000  0.77550000  0.77550000  1
  H  H324  1  0.59090000  0.77410000  0.77410000  1
  H  H325  1  0.60650000  0.65660000  0.65660000  1
  H  H326  1  0.70720000  0.69420000  0.30580000  1
  H  H327  1  0.29280000  0.30580000  0.69420000  1
  H  H328  1  0.29280000  0.69420000  0.30580000  1
  H  H329  1  0.70720000  0.30580000  0.69420000  1
  H  H330  1  0.53482000  0.39354000  0.87582000  1
  H  H331  1  0.80418000  0.12418000  0.60646000  1
  H  H332  1  0.19582000  0.87582000  0.39354000  1
  H  H333  1  0.80418000  0.60646000  0.12418000  1
  H  H334  1  0.19582000  0.39354000  0.87582000  1
  H  H335  1  0.53482000  0.87582000  0.39354000  1
  H  H336  1  0.46518000  0.12418000  0.60646000  1
  H  H337  1  0.46518000  0.60646000  0.12418000  1
  H  H338  1  0.12736000  0.37990000  0.25238000  1
  H  H339  1  0.24036000  0.25238000  0.37990000  1
  H  H340  1  0.75964000  0.74762000  0.62010000  1
  H  H341  1  0.87264000  0.62010000  0.74762000  1
  H  H342  1  0.13212500  0.23086500  0.43088500  1
  H  H343  1  0.12022500  0.20074000  0.37956000  1
  H  H344  1  0.06121500  0.27676500  0.40245500  1
  H  H345  1  0.29748500  0.37891000  0.19731000  1
  H  H346  1  0.26640500  0.39879500  0.27314500  1
  H  H347  1  0.20586000  0.43103500  0.23331500  1
  H  H348  1  0.75323000  0.59297000  0.80397000  1
  H  H349  1  0.78432000  0.57308000  0.72813000  1
  H  H350  1  0.69269500  0.62520500  0.76413500  1
  H  H351  1  0.91118000  0.72849000  0.57096000  1
  H  H352  1  0.92307500  0.75862000  0.62229000  1
  H  H353  1  0.85217500  0.80452000  0.59385000  1
  N  N354  1  0.73180000  0.71610000  0.28390000  1
  N  N355  1  0.26820000  0.28390000  0.71610000  1
  N  N356  1  0.26820000  0.71610000  0.28390000  1
  N  N357  1  0.73180000  0.28390000  0.71610000  1
  O  O358  1  0.79188000  0.32322000  0.24082000  1
  O  O359  1  0.74939000  0.41967000  0.30035000  1
  O  O360  1  0.09571000  0.73369000  0.85349000  1
  O  O361  1  0.17930000  0.64430000  0.87570000  1
  O  O362  1  0.73780000  0.43910000  0.20770000  1
  O  O363  1  0.64408000  0.24082000  0.32322000  1
  O  O364  1  0.53059000  0.30035000  0.41967000  1
  O  O365  1  0.31711000  0.85349000  0.73369000  1
  O  O366  1  0.30070000  0.87570000  0.64430000  1
  O  O367  1  0.61540000  0.20770000  0.43910000  1
  O  O368  1  0.20812000  0.75918000  0.67678000  1
  O  O369  1  0.25061000  0.69965000  0.58033000  1
  O  O370  1  0.90429000  0.14651000  0.26631000  1
  O  O371  1  0.82070000  0.12430000  0.35570000  1
  O  O372  1  0.26220000  0.79230000  0.56090000  1
  O  O373  1  0.35592000  0.67678000  0.75918000  1
  O  O374  1  0.46941000  0.58033000  0.69965000  1
  O  O375  1  0.68289000  0.26631000  0.14651000  1
  O  O376  1  0.69930000  0.35570000  0.12430000  1
  O  O377  1  0.38460000  0.56090000  0.79230000  1
  O  O378  1  0.20812000  0.67678000  0.75918000  1
  O  O379  1  0.25061000  0.58033000  0.69965000  1
  O  O380  1  0.90429000  0.26631000  0.14651000  1
  O  O381  1  0.82070000  0.35570000  0.12430000  1
  O  O382  1  0.26220000  0.56090000  0.79230000  1
  O  O383  1  0.35592000  0.75918000  0.67678000  1
  O  O384  1  0.46941000  0.69965000  0.58033000  1
  O  O385  1  0.68289000  0.14651000  0.26631000  1
  O  O386  1  0.69930000  0.12430000  0.35570000  1
  O  O387  1  0.38460000  0.79230000  0.56090000  1
  O  O388  1  0.79188000  0.24082000  0.32322000  1
  O  O389  1  0.74939000  0.30035000  0.41967000  1
  O  O390  1  0.09571000  0.85349000  0.73369000  1
  O  O391  1  0.17930000  0.87570000  0.64430000  1
  O  O392  1  0.73780000  0.20770000  0.43910000  1
  O  O393  1  0.64408000  0.32322000  0.24082000  1
  O  O394  1  0.53059000  0.41967000  0.30035000  1
  O  O395  1  0.31711000  0.73369000  0.85349000  1
  O  O396  1  0.30070000  0.64430000  0.87570000  1
  O  O397  1  0.61540000  0.43910000  0.20770000  1
  O  O398  1  0.65185000  0.39725000  0.39725000  1
  O  O399  1  0.91758333  0.24910000  0.24910000  1
  O  O400  1  0.88120000  0.16610000  0.16610000  1
  O  O401  1  0.84940000  0.31710000  0.31710000  1
  O  O402  1  0.55365000  0.39725000  0.39725000  1
  O  O403  1  0.58421667  0.24910000  0.24910000  1
  O  O404  1  0.78660000  0.16610000  0.16610000  1
  O  O405  1  0.51640000  0.31710000  0.31710000  1
  O  O406  1  0.34815000  0.60275000  0.60275000  1
  O  O407  1  0.08241667  0.75090000  0.75090000  1
  O  O408  1  0.11880000  0.83390000  0.83390000  1
  O  O409  1  0.15060000  0.68290000  0.68290000  1
  O  O410  1  0.44635000  0.60275000  0.60275000  1
  O  O411  1  0.41578333  0.75090000  0.75090000  1
  O  O412  1  0.21340000  0.83390000  0.83390000  1
  O  O413  1  0.48360000  0.68290000  0.68290000  1
  O  O414  1  0.66600000  0.37580000  0.29220000  1
  O  O415  1  0.76890000  0.27100000  0.19120000  1
  O  O416  1  0.66600000  0.29220000  0.37580000  1
  O  O417  1  0.76890000  0.19120000  0.27100000  1
  O  O418  1  0.33400000  0.70780000  0.62420000  1
  O  O419  1  0.23110000  0.80880000  0.72900000  1
  O  O420  1  0.33400000  0.62420000  0.70780000  1
  O  O421  1  0.23110000  0.72900000  0.80880000  1
  Zr  Zr422  1  0.74089000  0.33436000  0.33436000  1
  Zr  Zr423  1  0.84469000  0.23045000  0.23045000  1
  Zr  Zr424  1  0.59039000  0.33436000  0.33436000  1
  Zr  Zr425  1  0.69441000  0.23045000  0.23045000  1
  Zr  Zr426  1  0.25911000  0.66564000  0.66564000  1
  Zr  Zr427  1  0.15531000  0.76955000  0.76955000  1
  Zr  Zr428  1  0.40961000  0.66564000  0.66564000  1
  Zr  Zr429  1  0.30559000  0.76955000  0.76955000  1
  Zr  Zr430  1  0.71803000  0.36281000  0.20113000  1
  Zr  Zr431  1  0.71803000  0.20113000  0.36281000  1
  Zr  Zr432  1  0.28197000  0.79887000  0.63719000  1
  Zr  Zr433  1  0.28197000  0.63719000  0.79887000  1
