# generated using pymatgen
data_Zr6H54C101(NO15)2
_symmetry_space_group_name_H-M   'P 1'
_cell_length_a   19.07300000
_cell_length_b   25.38855141
_cell_length_c   25.38855141
_cell_angle_alpha   79.30974996
_cell_angle_beta   67.93723479
_cell_angle_gamma   67.93723479
_symmetry_Int_Tables_number   1
_chemical_formula_structural   Zr6H54C101(NO15)2
_chemical_formula_sum   'Zr12 H108 C202 N4 O60'
_cell_volume   10545.33295725
_cell_formula_units_Z   2
loop_
 _symmetry_equiv_pos_site_id
 _symmetry_equiv_pos_as_xyz
  1  'x, y, z'
loop_
 _atom_site_type_symbol
 _atom_site_label
 _atom_site_symmetry_multiplicity
 _atom_site_fract_x
 _atom_site_fract_y
 _atom_site_fract_z
 _atom_site_occupancy
  C  C0  1  0.02060000  0.87170000  0.30990000  1
  C  C1  1  0.97430000  0.26520000  0.54880000  1
  C  C2  1  0.97290000  0.24790000  0.49330000  1
  C  C3  1  0.04760000  0.01470000  0.25490000  1
  C  C4  1  0.05650000  0.95730000  0.25990000  1
  C  C5  1  0.97140000  0.21270000  0.39630000  1
  C  C6  1  0.99440000  0.04880000  0.30200000  1
  C  C7  1  0.01570000  0.93300000  0.30820000  1
  C  C8  1  0.98640000  0.11020000  0.29640000  1
  C  C9  1  0.98020000  0.13580000  0.34460000  1
  C  C10  1  0.02840000  0.19460000  0.46860000  1
  C  C11  1  0.91780000  0.28120000  0.46940000  1
  C  C12  1  0.97280000  0.19180000  0.34440000  1
  C  C13  1  0.91680000  0.26380000  0.42020000  1
  C  C14  1  0.98420000  0.14270000  0.24590000  1
  C  C15  1  0.98120000  0.19990000  0.24610000  1
  C  C16  1  0.97120000  0.22430000  0.29610000  1
  C  C17  1  0.02510000  0.17780000  0.42220000  1
  C  C18  1  0.95220000  0.02420000  0.35020000  1
  C  C19  1  0.96280000  0.96570000  0.35230000  1
  C  C20  1  0.23420000  0.70810000  0.29190000  1
  C  C21  1  0.46230000  0.70660000  0.29340000  1
  C  C22  1  0.05990000  0.95560000  0.04440000  1
  C  C23  1  0.06370000  0.91120000  0.08880000  1
  C  C24  1  0.35060000  0.66990000  0.33010000  1
  C  C25  1  0.31380000  0.70850000  0.29150000  1
  C  C26  1  0.35110000  0.74530000  0.25470000  1
  C  C27  1  0.42690000  0.74380000  0.25620000  1
  C  C28  1  0.42370000  0.67070000  0.32930000  1
  C  C29  1  0.00000000  0.84470000  0.15530000  1
  C  C30  1  0.00000000  0.97800000  0.02200000  1
  C  C31  1  0.00000000  0.89100000  0.10900000  1
  C  C32  1  0.79780000  0.30990000  0.87170000  1
  C  C33  1  0.21170000  0.54880000  0.26520000  1
  C  C34  1  0.28590000  0.49330000  0.24790000  1
  C  C35  1  0.68280000  0.25490000  0.01470000  1
  C  C36  1  0.72630000  0.25990000  0.95730000  1
  C  C37  1  0.41960000  0.39630000  0.21270000  1
  C  C38  1  0.65480000  0.30200000  0.04880000  1
  C  C39  1  0.74310000  0.30820000  0.93300000  1
  C  C40  1  0.60700000  0.29640000  0.11020000  1
  C  C41  1  0.53940000  0.34460000  0.13580000  1
  C  C42  1  0.30840000  0.46860000  0.19460000  1
  C  C43  1  0.33160000  0.46940000  0.28120000  1
  C  C44  1  0.49100000  0.34440000  0.19180000  1
  C  C45  1  0.39920000  0.42020000  0.26380000  1
  C  C46  1  0.62720000  0.24590000  0.14270000  1
  C  C47  1  0.57280000  0.24610000  0.19990000  1
  C  C48  1  0.50840000  0.29610000  0.22430000  1
  C  C49  1  0.37490000  0.42220000  0.17780000  1
  C  C50  1  0.67340000  0.35020000  0.02420000  1
  C  C51  1  0.71920000  0.35230000  0.96570000  1
  C  C52  1  0.76580000  0.29190000  0.70810000  1
  C  C53  1  0.53770000  0.29340000  0.70660000  1
  C  C54  1  0.94010000  0.04440000  0.95560000  1
  C  C55  1  0.93630000  0.08880000  0.91120000  1
  C  C56  1  0.64940000  0.33010000  0.66990000  1
  C  C57  1  0.68620000  0.29150000  0.70850000  1
  C  C58  1  0.64890000  0.25470000  0.74530000  1
  C  C59  1  0.57310000  0.25620000  0.74380000  1
  C  C60  1  0.57630000  0.32930000  0.67070000  1
  C  C61  1  0.00000000  0.15530000  0.84470000  1
  C  C62  1  0.00000000  0.02200000  0.97800000  1
  C  C63  1  0.00000000  0.10900000  0.89100000  1
  C  C64  1  0.20220000  0.12830000  0.69010000  1
  C  C65  1  0.78830000  0.73480000  0.45120000  1
  C  C66  1  0.71410000  0.75210000  0.50670000  1
  C  C67  1  0.31720000  0.98530000  0.74510000  1
  C  C68  1  0.27370000  0.04270000  0.74010000  1
  C  C69  1  0.58040000  0.78730000  0.60370000  1
  C  C70  1  0.34520000  0.95120000  0.69800000  1
  C  C71  1  0.25690000  0.06700000  0.69180000  1
  C  C72  1  0.39300000  0.88980000  0.70360000  1
  C  C73  1  0.46060000  0.86420000  0.65540000  1
  C  C74  1  0.69160000  0.80540000  0.53140000  1
  C  C75  1  0.66840000  0.71880000  0.53060000  1
  C  C76  1  0.50900000  0.80820000  0.65560000  1
  C  C77  1  0.60080000  0.73620000  0.57980000  1
  C  C78  1  0.37280000  0.85730000  0.75410000  1
  C  C79  1  0.42720000  0.80010000  0.75390000  1
  C  C80  1  0.49160000  0.77570000  0.70390000  1
  C  C81  1  0.62510000  0.82220000  0.57780000  1
  C  C82  1  0.32660000  0.97580000  0.64980000  1
  C  C83  1  0.28080000  0.03430000  0.64770000  1
  C  C84  1  0.23420000  0.29190000  0.70810000  1
  C  C85  1  0.46230000  0.29340000  0.70660000  1
  C  C86  1  0.05990000  0.04440000  0.95560000  1
  C  C87  1  0.06370000  0.08880000  0.91120000  1
  C  C88  1  0.35060000  0.33010000  0.66990000  1
  C  C89  1  0.31380000  0.29150000  0.70850000  1
  C  C90  1  0.35110000  0.25470000  0.74530000  1
  C  C91  1  0.42690000  0.25620000  0.74380000  1
  C  C92  1  0.42370000  0.32930000  0.67070000  1
  C  C93  1  0.97940000  0.69010000  0.12830000  1
  C  C94  1  0.02570000  0.45120000  0.73480000  1
  C  C95  1  0.02710000  0.50670000  0.75210000  1
  C  C96  1  0.95240000  0.74510000  0.98530000  1
  C  C97  1  0.94350000  0.74010000  0.04270000  1
  C  C98  1  0.02860000  0.60370000  0.78730000  1
  C  C99  1  0.00560000  0.69800000  0.95120000  1
  C  C100  1  0.98430000  0.69180000  0.06700000  1
  C  C101  1  0.01360000  0.70360000  0.88980000  1
  C  C102  1  0.01980000  0.65540000  0.86420000  1
  C  C103  1  0.97160000  0.53140000  0.80540000  1
  C  C104  1  0.08220000  0.53060000  0.71880000  1
  C  C105  1  0.02720000  0.65560000  0.80820000  1
  C  C106  1  0.08320000  0.57980000  0.73620000  1
  C  C107  1  0.01580000  0.75410000  0.85730000  1
  C  C108  1  0.01880000  0.75390000  0.80010000  1
  C  C109  1  0.02880000  0.70390000  0.77570000  1
  C  C110  1  0.97490000  0.57780000  0.82220000  1
  C  C111  1  0.04780000  0.64980000  0.97580000  1
  C  C112  1  0.03720000  0.64770000  0.03430000  1
  C  C113  1  0.76580000  0.70810000  0.29190000  1
  C  C114  1  0.53770000  0.70660000  0.29340000  1
  C  C115  1  0.94010000  0.95560000  0.04440000  1
  C  C116  1  0.93630000  0.91120000  0.08880000  1
  C  C117  1  0.64940000  0.66990000  0.33010000  1
  C  C118  1  0.68620000  0.70850000  0.29150000  1
  C  C119  1  0.64890000  0.74530000  0.25470000  1
  C  C120  1  0.57310000  0.74380000  0.25620000  1
  C  C121  1  0.57630000  0.67070000  0.32930000  1
  C  C122  1  0.97940000  0.12830000  0.69010000  1
  C  C123  1  0.02570000  0.73480000  0.45120000  1
  C  C124  1  0.02710000  0.75210000  0.50670000  1
  C  C125  1  0.95240000  0.98530000  0.74510000  1
  C  C126  1  0.94350000  0.04270000  0.74010000  1
  C  C127  1  0.02860000  0.78730000  0.60370000  1
  C  C128  1  0.00560000  0.95120000  0.69800000  1
  C  C129  1  0.98430000  0.06700000  0.69180000  1
  C  C130  1  0.01360000  0.88980000  0.70360000  1
  C  C131  1  0.01980000  0.86420000  0.65540000  1
  C  C132  1  0.97160000  0.80540000  0.53140000  1
  C  C133  1  0.08220000  0.71880000  0.53060000  1
  C  C134  1  0.02720000  0.80820000  0.65560000  1
  C  C135  1  0.08320000  0.73620000  0.57980000  1
  C  C136  1  0.01580000  0.85730000  0.75410000  1
  C  C137  1  0.01880000  0.80010000  0.75390000  1
  C  C138  1  0.02880000  0.77570000  0.70390000  1
  C  C139  1  0.97490000  0.82220000  0.57780000  1
  C  C140  1  0.04780000  0.97580000  0.64980000  1
  C  C141  1  0.03720000  0.03430000  0.64770000  1
  C  C142  1  0.20220000  0.69010000  0.12830000  1
  C  C143  1  0.78830000  0.45120000  0.73480000  1
  C  C144  1  0.71410000  0.50670000  0.75210000  1
  C  C145  1  0.31720000  0.74510000  0.98530000  1
  C  C146  1  0.27370000  0.74010000  0.04270000  1
  C  C147  1  0.58040000  0.60370000  0.78730000  1
  C  C148  1  0.34520000  0.69800000  0.95120000  1
  C  C149  1  0.25690000  0.69180000  0.06700000  1
  C  C150  1  0.39300000  0.70360000  0.88980000  1
  C  C151  1  0.46060000  0.65540000  0.86420000  1
  C  C152  1  0.69160000  0.53140000  0.80540000  1
  C  C153  1  0.66840000  0.53060000  0.71880000  1
  C  C154  1  0.50900000  0.65560000  0.80820000  1
  C  C155  1  0.60080000  0.57980000  0.73620000  1
  C  C156  1  0.37280000  0.75410000  0.85730000  1
  C  C157  1  0.42720000  0.75390000  0.80010000  1
  C  C158  1  0.49160000  0.70390000  0.77570000  1
  C  C159  1  0.62510000  0.57780000  0.82220000  1
  C  C160  1  0.32660000  0.64980000  0.97580000  1
  C  C161  1  0.28080000  0.64770000  0.03430000  1
  C  C162  1  0.79780000  0.87170000  0.30990000  1
  C  C163  1  0.21170000  0.26520000  0.54880000  1
  C  C164  1  0.28590000  0.24790000  0.49330000  1
  C  C165  1  0.68280000  0.01470000  0.25490000  1
  C  C166  1  0.72630000  0.95730000  0.25990000  1
  C  C167  1  0.41960000  0.21270000  0.39630000  1
  C  C168  1  0.65480000  0.04880000  0.30200000  1
  C  C169  1  0.74310000  0.93300000  0.30820000  1
  C  C170  1  0.60700000  0.11020000  0.29640000  1
  C  C171  1  0.53940000  0.13580000  0.34460000  1
  C  C172  1  0.30840000  0.19460000  0.46860000  1
  C  C173  1  0.33160000  0.28120000  0.46940000  1
  C  C174  1  0.49100000  0.19180000  0.34440000  1
  C  C175  1  0.39920000  0.26380000  0.42020000  1
  C  C176  1  0.62720000  0.14270000  0.24590000  1
  C  C177  1  0.57280000  0.19990000  0.24610000  1
  C  C178  1  0.50840000  0.22430000  0.29610000  1
  C  C179  1  0.37490000  0.17780000  0.42220000  1
  C  C180  1  0.67340000  0.02420000  0.35020000  1
  C  C181  1  0.71920000  0.96570000  0.35230000  1
  C  C182  1  0.02060000  0.30990000  0.87170000  1
  C  C183  1  0.97430000  0.54880000  0.26520000  1
  C  C184  1  0.97290000  0.49330000  0.24790000  1
  C  C185  1  0.04760000  0.25490000  0.01470000  1
  C  C186  1  0.05650000  0.25990000  0.95730000  1
  C  C187  1  0.97140000  0.39630000  0.21270000  1
  C  C188  1  0.99440000  0.30200000  0.04880000  1
  C  C189  1  0.01570000  0.30820000  0.93300000  1
  C  C190  1  0.98640000  0.29640000  0.11020000  1
  C  C191  1  0.98020000  0.34460000  0.13580000  1
  C  C192  1  0.02840000  0.46860000  0.19460000  1
  C  C193  1  0.91780000  0.46940000  0.28120000  1
  C  C194  1  0.97280000  0.34440000  0.19180000  1
  C  C195  1  0.91680000  0.42020000  0.26380000  1
  C  C196  1  0.98420000  0.24590000  0.14270000  1
  C  C197  1  0.98120000  0.24610000  0.19990000  1
  C  C198  1  0.97120000  0.29610000  0.22430000  1
  C  C199  1  0.02510000  0.42220000  0.17780000  1
  C  C200  1  0.95220000  0.35020000  0.02420000  1
  C  C201  1  0.96280000  0.35230000  0.96570000  1
  H  H202  1  0.07650000  0.03080000  0.22080000  1
  H  H203  1  0.09220000  0.93420000  0.22860000  1
  H  H204  1  0.98130000  0.11270000  0.37850000  1
  H  H205  1  0.06760000  0.17100000  0.48520000  1
  H  H206  1  0.88000000  0.31600000  0.48540000  1
  H  H207  1  0.87820000  0.28730000  0.40310000  1
  H  H208  1  0.98470000  0.12800000  0.21400000  1
  H  H209  1  0.06010000  0.14170000  0.40770000  1
  H  H210  1  0.91620000  0.04630000  0.38190000  1
  H  H211  1  0.93230000  0.94920000  0.38520000  1
  H  H212  1  0.10290000  0.97030000  0.02970000  1
  H  H213  1  0.10710000  0.89680000  0.10320000  1
  H  H214  1  0.32580000  0.64450000  0.35550000  1
  H  H215  1  0.32720000  0.77110000  0.22890000  1
  H  H216  1  0.45280000  0.76890000  0.23110000  1
  H  H217  1  0.44820000  0.64520000  0.35480000  1
  H  H218  1  0.96100000  0.30590000  0.30590000  1
  H  H219  1  0.67190000  0.22080000  0.03080000  1
  H  H220  1  0.74500000  0.22860000  0.93420000  1
  H  H221  1  0.52750000  0.37850000  0.11270000  1
  H  H222  1  0.27620000  0.48520000  0.17100000  1
  H  H223  1  0.31860000  0.48540000  0.31600000  1
  H  H224  1  0.43140000  0.40310000  0.28730000  1
  H  H225  1  0.67330000  0.21400000  0.12800000  1
  H  H226  1  0.39050000  0.40770000  0.14170000  1
  H  H227  1  0.65560000  0.38190000  0.04630000  1
  H  H228  1  0.73330000  0.38520000  0.94920000  1
  H  H229  1  0.89710000  0.02970000  0.97030000  1
  H  H230  1  0.89290000  0.10320000  0.89680000  1
  H  H231  1  0.67420000  0.35550000  0.64450000  1
  H  H232  1  0.67280000  0.22890000  0.77110000  1
  H  H233  1  0.54720000  0.23110000  0.76890000  1
  H  H234  1  0.55180000  0.35480000  0.64520000  1
  H  H235  1  0.42720000  0.30590000  0.30590000  1
  H  H236  1  0.32810000  0.96920000  0.77920000  1
  H  H237  1  0.25500000  0.06580000  0.77140000  1
  H  H238  1  0.47250000  0.88730000  0.62150000  1
  H  H239  1  0.72380000  0.82900000  0.51480000  1
  H  H240  1  0.68140000  0.68400000  0.51460000  1
  H  H241  1  0.56860000  0.71270000  0.59690000  1
  H  H242  1  0.32670000  0.87200000  0.78600000  1
  H  H243  1  0.60950000  0.85830000  0.59230000  1
  H  H244  1  0.34440000  0.95370000  0.61810000  1
  H  H245  1  0.26670000  0.05080000  0.61480000  1
  H  H246  1  0.10290000  0.02970000  0.97030000  1
  H  H247  1  0.10710000  0.10320000  0.89680000  1
  H  H248  1  0.32580000  0.35550000  0.64450000  1
  H  H249  1  0.32720000  0.22890000  0.77110000  1
  H  H250  1  0.45280000  0.23110000  0.76890000  1
  H  H251  1  0.44820000  0.35480000  0.64520000  1
  H  H252  1  0.57280000  0.69410000  0.69410000  1
  H  H253  1  0.92350000  0.77920000  0.96920000  1
  H  H254  1  0.90780000  0.77140000  0.06580000  1
  H  H255  1  0.01870000  0.62150000  0.88730000  1
  H  H256  1  0.93240000  0.51480000  0.82900000  1
  H  H257  1  0.12000000  0.51460000  0.68400000  1
  H  H258  1  0.12180000  0.59690000  0.71270000  1
  H  H259  1  0.01530000  0.78600000  0.87200000  1
  H  H260  1  0.93990000  0.59230000  0.85830000  1
  H  H261  1  0.08380000  0.61810000  0.95370000  1
  H  H262  1  0.06770000  0.61480000  0.05080000  1
  H  H263  1  0.89710000  0.97030000  0.02970000  1
  H  H264  1  0.89290000  0.89680000  0.10320000  1
  H  H265  1  0.67420000  0.64450000  0.35550000  1
  H  H266  1  0.67280000  0.77110000  0.22890000  1
  H  H267  1  0.54720000  0.76890000  0.23110000  1
  H  H268  1  0.55180000  0.64520000  0.35480000  1
  H  H269  1  0.03900000  0.69410000  0.69410000  1
  H  H270  1  0.92350000  0.96920000  0.77920000  1
  H  H271  1  0.90780000  0.06580000  0.77140000  1
  H  H272  1  0.01870000  0.88730000  0.62150000  1
  H  H273  1  0.93240000  0.82900000  0.51480000  1
  H  H274  1  0.12000000  0.68400000  0.51460000  1
  H  H275  1  0.12180000  0.71270000  0.59690000  1
  H  H276  1  0.01530000  0.87200000  0.78600000  1
  H  H277  1  0.93990000  0.85830000  0.59230000  1
  H  H278  1  0.08380000  0.95370000  0.61810000  1
  H  H279  1  0.06770000  0.05080000  0.61480000  1
  H  H280  1  0.32810000  0.77920000  0.96920000  1
  H  H281  1  0.25500000  0.77140000  0.06580000  1
  H  H282  1  0.47250000  0.62150000  0.88730000  1
  H  H283  1  0.72380000  0.51480000  0.82900000  1
  H  H284  1  0.68140000  0.51460000  0.68400000  1
  H  H285  1  0.56860000  0.59690000  0.71270000  1
  H  H286  1  0.32670000  0.78600000  0.87200000  1
  H  H287  1  0.60950000  0.59230000  0.85830000  1
  H  H288  1  0.34440000  0.61810000  0.95370000  1
  H  H289  1  0.26670000  0.61480000  0.05080000  1
  H  H290  1  0.67190000  0.03080000  0.22080000  1
  H  H291  1  0.74500000  0.93420000  0.22860000  1
  H  H292  1  0.52750000  0.11270000  0.37850000  1
  H  H293  1  0.27620000  0.17100000  0.48520000  1
  H  H294  1  0.31860000  0.31600000  0.48540000  1
  H  H295  1  0.43140000  0.28730000  0.40310000  1
  H  H296  1  0.67330000  0.12800000  0.21400000  1
  H  H297  1  0.39050000  0.14170000  0.40770000  1
  H  H298  1  0.65560000  0.04630000  0.38190000  1
  H  H299  1  0.73330000  0.94920000  0.38520000  1
  H  H300  1  0.07650000  0.22080000  0.03080000  1
  H  H301  1  0.09220000  0.22860000  0.93420000  1
  H  H302  1  0.98130000  0.37850000  0.11270000  1
  H  H303  1  0.06760000  0.48520000  0.17100000  1
  H  H304  1  0.88000000  0.48540000  0.31600000  1
  H  H305  1  0.87820000  0.40310000  0.28730000  1
  H  H306  1  0.98470000  0.21400000  0.12800000  1
  H  H307  1  0.06010000  0.40770000  0.14170000  1
  H  H308  1  0.91620000  0.38190000  0.04630000  1
  H  H309  1  0.93230000  0.38520000  0.94920000  1
  N  N310  1  0.96630000  0.28220000  0.28220000  1
  N  N311  1  0.46930000  0.28220000  0.28220000  1
  N  N312  1  0.53070000  0.71780000  0.71780000  1
  N  N313  1  0.03370000  0.71780000  0.71780000  1
  O  O314  1  0.03519000  0.22790000  0.56392000  1
  O  O315  1  0.05600000  0.74366000  0.32914000  1
  O  O316  1  0.07496000  0.84145000  0.27103000  1
  O  O317  1  0.96823000  0.85595000  0.35179000  1
  O  O318  1  0.92652000  0.30958000  0.57098000  1
  O  O319  1  0.05910000  0.82800000  0.17200000  1
  O  O320  1  0.20350000  0.66920000  0.33080000  1
  O  O321  1  0.20350000  0.74570000  0.25430000  1
  O  O322  1  0.96560000  0.68580000  0.38300000  1
  O  O323  1  0.96450000  0.79830000  0.27270000  1
  O  O324  1  0.17299000  0.56392000  0.22790000  1
  O  O325  1  0.87120000  0.32914000  0.74366000  1
  O  O326  1  0.81256000  0.27103000  0.84145000  1
  O  O327  1  0.82403000  0.35179000  0.85595000  1
  O  O328  1  0.19292000  0.57098000  0.30958000  1
  O  O329  1  0.94090000  0.17200000  0.82800000  1
  O  O330  1  0.79650000  0.33080000  0.66920000  1
  O  O331  1  0.79650000  0.25430000  0.74570000  1
  O  O332  1  0.96560000  0.38300000  0.68580000  1
  O  O333  1  0.96450000  0.27270000  0.79830000  1
  O  O334  1  0.82701000  0.77210000  0.43608000  1
  O  O335  1  0.12880000  0.25634000  0.67086000  1
  O  O336  1  0.18744000  0.15855000  0.72897000  1
  O  O337  1  0.17597000  0.14405000  0.64821000  1
  O  O338  1  0.80708000  0.69042000  0.42902000  1
  O  O339  1  0.05910000  0.17200000  0.82800000  1
  O  O340  1  0.20350000  0.33080000  0.66920000  1
  O  O341  1  0.20350000  0.25430000  0.74570000  1
  O  O342  1  0.03440000  0.31420000  0.61700000  1
  O  O343  1  0.03550000  0.20170000  0.72730000  1
  O  O344  1  0.96481000  0.43608000  0.77210000  1
  O  O345  1  0.94400000  0.67086000  0.25634000  1
  O  O346  1  0.92504000  0.72897000  0.15855000  1
  O  O347  1  0.03177000  0.64821000  0.14405000  1
  O  O348  1  0.07348000  0.42902000  0.69042000  1
  O  O349  1  0.94090000  0.82800000  0.17200000  1
  O  O350  1  0.79650000  0.66920000  0.33080000  1
  O  O351  1  0.79650000  0.74570000  0.25430000  1
  O  O352  1  0.03440000  0.61700000  0.31420000  1
  O  O353  1  0.03550000  0.72730000  0.20170000  1
  O  O354  1  0.96481000  0.77210000  0.43608000  1
  O  O355  1  0.94400000  0.25634000  0.67086000  1
  O  O356  1  0.92504000  0.15855000  0.72897000  1
  O  O357  1  0.03177000  0.14405000  0.64821000  1
  O  O358  1  0.07348000  0.69042000  0.42902000  1
  O  O359  1  0.82701000  0.43608000  0.77210000  1
  O  O360  1  0.12880000  0.67086000  0.25634000  1
  O  O361  1  0.18744000  0.72897000  0.15855000  1
  O  O362  1  0.17597000  0.64821000  0.14405000  1
  O  O363  1  0.80708000  0.42902000  0.69042000  1
  O  O364  1  0.17299000  0.22790000  0.56392000  1
  O  O365  1  0.87120000  0.74366000  0.32914000  1
  O  O366  1  0.81256000  0.84145000  0.27103000  1
  O  O367  1  0.82403000  0.85595000  0.35179000  1
  O  O368  1  0.19292000  0.30958000  0.57098000  1
  O  O369  1  0.03519000  0.56392000  0.22790000  1
  O  O370  1  0.05600000  0.32914000  0.74366000  1
  O  O371  1  0.07496000  0.27103000  0.84145000  1
  O  O372  1  0.96823000  0.35179000  0.85595000  1
  O  O373  1  0.92652000  0.57098000  0.30958000  1
  Zr  Zr374  1  0.09358000  0.65311000  0.34689000  1
  Zr  Zr375  1  0.09210000  0.76164000  0.23836000  1
  Zr  Zr376  1  0.92775000  0.78050000  0.36400000  1
  Zr  Zr377  1  0.90642000  0.34689000  0.65311000  1
  Zr  Zr378  1  0.90790000  0.23836000  0.76164000  1
  Zr  Zr379  1  0.92775000  0.36400000  0.78050000  1
  Zr  Zr380  1  0.09358000  0.34689000  0.65311000  1
  Zr  Zr381  1  0.09210000  0.23836000  0.76164000  1
  Zr  Zr382  1  0.07225000  0.21950000  0.63600000  1
  Zr  Zr383  1  0.90642000  0.65311000  0.34689000  1
  Zr  Zr384  1  0.90790000  0.76164000  0.23836000  1
  Zr  Zr385  1  0.07225000  0.63600000  0.21950000  1
