# generated using pymatgen
data_Zr3C10(NO3)4
_symmetry_space_group_name_H-M   'P 1'
_cell_length_a   13.38980000
_cell_length_b   14.13550000
_cell_length_c   19.46670000
_cell_angle_alpha   90.00000000
_cell_angle_beta   90.00000000
_cell_angle_gamma   90.00000000
_symmetry_Int_Tables_number   1
_chemical_formula_structural   Zr3C10(NO3)4
_chemical_formula_sum   'Zr12 C40 N16 O48'
_cell_volume   3684.49185750
_cell_formula_units_Z   4
loop_
 _symmetry_equiv_pos_site_id
 _symmetry_equiv_pos_as_xyz
  1  'x, y, z'
loop_
 _atom_site_type_symbol
 _atom_site_label
 _atom_site_symmetry_multiplicity
 _atom_site_fract_x
 _atom_site_fract_y
 _atom_site_fract_z
 _atom_site_occupancy
  Zr  Zr0  1  0.62809000  0.12689000  0.53036000  1
  Zr  Zr1  1  0.56239000  1.00000000  0.37497000  1
  Zr  Zr2  1  0.37191000  0.12689000  0.46964000  1
  Zr  Zr3  1  0.43761000  0.00000000  0.62503000  1
  Zr  Zr4  1  0.12809000  0.37311000  0.96964000  1
  Zr  Zr5  1  0.06239000  0.50000000  0.12503000  1
  Zr  Zr6  1  0.87191000  0.37311000  0.03036000  1
  Zr  Zr7  1  0.93761000  0.50000000  0.87497000  1
  Zr  Zr8  1  0.37191000  0.87311000  0.46964000  1
  Zr  Zr9  1  0.62809000  0.87311000  0.53036000  1
  Zr  Zr10  1  0.87191000  0.62689000  0.03036000  1
  Zr  Zr11  1  0.12809000  0.62689000  0.96964000  1
  C  C12  1  0.71269000  0.15841000  0.37687000  1
  C  C13  1  0.78373000  0.21947000  0.33637000  1
  C  C14  1  0.78845000  0.23770000  0.26513000  1
  C  C15  1  0.86726000  0.30366000  0.25959000  1
  C  C16  1  0.90922000  0.35414000  0.19775000  1
  C  C17  1  0.28731000  0.15841000  0.62313000  1
  C  C18  1  0.21627000  0.21947000  0.66363000  1
  C  C19  1  0.21155000  0.23770000  0.73487000  1
  C  C20  1  0.13274000  0.30366000  0.74041000  1
  C  C21  1  0.09078000  0.35414000  0.80225000  1
  C  C22  1  0.21269000  0.34159000  0.12313000  1
  C  C23  1  0.28373000  0.28053000  0.16363000  1
  C  C24  1  0.28845000  0.26230000  0.23487000  1
  C  C25  1  0.36726000  0.19634000  0.24041000  1
  C  C26  1  0.40922000  0.14586000  0.30225000  1
  C  C27  1  0.78731000  0.34159000  0.87687000  1
  C  C28  1  0.71627000  0.28053000  0.83637000  1
  C  C29  1  0.71155000  0.26230000  0.76513000  1
  C  C30  1  0.63274000  0.19634000  0.75959000  1
  C  C31  1  0.59078000  0.14586000  0.69775000  1
  C  C32  1  0.28731000  0.84159000  0.62313000  1
  C  C33  1  0.21627000  0.78053000  0.66363000  1
  C  C34  1  0.21155000  0.76230000  0.73487000  1
  C  C35  1  0.13274000  0.69634000  0.74041000  1
  C  C36  1  0.09078000  0.64586000  0.80225000  1
  C  C37  1  0.71269000  0.84159000  0.37687000  1
  C  C38  1  0.78373000  0.78053000  0.33637000  1
  C  C39  1  0.78845000  0.76230000  0.26513000  1
  C  C40  1  0.86726000  0.69634000  0.25959000  1
  C  C41  1  0.90922000  0.64586000  0.19775000  1
  C  C42  1  0.78731000  0.65841000  0.87687000  1
  C  C43  1  0.71627000  0.71947000  0.83637000  1
  C  C44  1  0.71155000  0.73770000  0.76513000  1
  C  C45  1  0.63274000  0.80366000  0.75959000  1
  C  C46  1  0.59078000  0.85414000  0.69775000  1
  C  C47  1  0.21269000  0.65841000  0.12313000  1
  C  C48  1  0.28373000  0.71947000  0.16363000  1
  C  C49  1  0.28845000  0.73770000  0.23487000  1
  C  C50  1  0.36726000  0.80366000  0.24041000  1
  C  C51  1  0.40922000  0.85414000  0.30225000  1
  N  N52  1  0.85403000  0.27118000  0.36851000  1
  N  N53  1  0.90399000  0.32124000  0.32270000  1
  N  N54  1  0.14597000  0.27118000  0.63149000  1
  N  N55  1  0.09601000  0.32124000  0.67730000  1
  N  N56  1  0.35403000  0.22882000  0.13149000  1
  N  N57  1  0.40399000  0.17876000  0.17730000  1
  N  N58  1  0.64597000  0.22882000  0.86851000  1
  N  N59  1  0.59601000  0.17876000  0.82270000  1
  N  N60  1  0.14597000  0.72882000  0.63149000  1
  N  N61  1  0.09601000  0.67876000  0.67730000  1
  N  N62  1  0.85403000  0.72882000  0.36851000  1
  N  N63  1  0.90399000  0.67876000  0.32270000  1
  N  N64  1  0.64597000  0.77118000  0.86851000  1
  N  N65  1  0.59601000  0.82124000  0.82270000  1
  N  N66  1  0.35403000  0.77118000  0.13149000  1
  N  N67  1  0.40399000  0.82124000  0.17730000  1
  O  O68  1  0.66510000  0.10780000  0.33750000  1
  O  O69  1  0.71600000  0.17030000  0.43930000  1
  O  O70  1  0.52570000  0.88950000  0.44750000  1
  O  O71  1  0.98760000  0.40530000  0.19700000  1
  O  O72  1  0.85660000  0.33800000  0.14380000  1
  O  O73  1  0.65710000  1.00000000  0.46660000  1
  O  O74  1  0.41190000  0.00000000  0.41020000  1
  O  O75  1  0.33490000  0.10780000  0.66250000  1
  O  O76  1  0.28400000  0.17030000  0.56070000  1
  O  O77  1  0.47430000  0.88950000  0.55250000  1
  O  O78  1  0.01240000  0.40530000  0.80300000  1
  O  O79  1  0.14340000  0.33800000  0.85620000  1
  O  O80  1  0.34290000  1.00000000  0.53340000  1
  O  O81  1  0.58810000  1.00000000  0.58980000  1
  O  O82  1  0.16510000  0.39220000  0.16250000  1
  O  O83  1  0.21600000  0.32970000  0.06070000  1
  O  O84  1  0.02570000  0.61050000  0.05250000  1
  O  O85  1  0.48760000  0.09470000  0.30300000  1
  O  O86  1  0.35660000  0.16200000  0.35620000  1
  O  O87  1  0.15710000  0.50000000  0.03340000  1
  O  O88  1  0.91190000  0.50000000  0.08980000  1
  O  O89  1  0.83490000  0.39220000  0.83750000  1
  O  O90  1  0.78400000  0.32970000  0.93930000  1
  O  O91  1  0.97430000  0.61050000  0.94750000  1
  O  O92  1  0.51240000  0.09470000  0.69700000  1
  O  O93  1  0.64340000  0.16200000  0.64380000  1
  O  O94  1  0.84290000  0.50000000  0.96660000  1
  O  O95  1  0.08810000  0.50000000  0.91020000  1
  O  O96  1  0.33490000  0.89220000  0.66250000  1
  O  O97  1  0.28400000  0.82970000  0.56070000  1
  O  O98  1  0.47430000  0.11050000  0.55250000  1
  O  O99  1  0.01240000  0.59470000  0.80300000  1
  O  O100  1  0.14340000  0.66200000  0.85620000  1
  O  O101  1  0.66510000  0.89220000  0.33750000  1
  O  O102  1  0.71600000  0.82970000  0.43930000  1
  O  O103  1  0.52570000  0.11050000  0.44750000  1
  O  O104  1  0.98760000  0.59470000  0.19700000  1
  O  O105  1  0.85660000  0.66200000  0.14380000  1
  O  O106  1  0.83490000  0.60780000  0.83750000  1
  O  O107  1  0.78400000  0.67030000  0.93930000  1
  O  O108  1  0.97430000  0.38950000  0.94750000  1
  O  O109  1  0.51240000  0.90530000  0.69700000  1
  O  O110  1  0.64340000  0.83800000  0.64380000  1
  O  O111  1  0.16510000  0.60780000  0.16250000  1
  O  O112  1  0.21600000  0.67030000  0.06070000  1
  O  O113  1  0.02570000  0.38950000  0.05250000  1
  O  O114  1  0.48760000  0.90530000  0.30300000  1
  O  O115  1  0.35660000  0.83800000  0.35620000  1
