# generated using pymatgen
data_Zr3H6C15(N3O8)2
_symmetry_space_group_name_H-M   'P 1'
_cell_length_a   19.58110000
_cell_length_b   19.58110000
_cell_length_c   19.58110000
_cell_angle_alpha   90.00000000
_cell_angle_beta   90.00000000
_cell_angle_gamma   90.00000000
_symmetry_Int_Tables_number   1
_chemical_formula_structural   Zr3H6C15(N3O8)2
_chemical_formula_sum   'Zr24 H48 C120 N48 O128'
_cell_volume   7507.77512520
_cell_formula_units_Z   8
loop_
 _symmetry_equiv_pos_site_id
 _symmetry_equiv_pos_as_xyz
  1  'x, y, z'
loop_
 _atom_site_type_symbol
 _atom_site_label
 _atom_site_symmetry_multiplicity
 _atom_site_fract_x
 _atom_site_fract_y
 _atom_site_fract_z
 _atom_site_occupancy
  Zr  Zr0  1  0.50760000  0.49237000  0.62271000  1
  Zr  Zr1  1  0.99240000  0.50763000  0.12271000  1
  Zr  Zr2  1  0.00760000  0.00763000  0.37729000  1
  Zr  Zr3  1  0.49240000  0.99237000  0.87729000  1
  Zr  Zr4  1  0.62271000  0.50760000  0.49237000  1
  Zr  Zr5  1  0.87729000  0.49240000  0.99237000  1
  Zr  Zr6  1  0.12271000  0.99240000  0.50763000  1
  Zr  Zr7  1  0.37729000  0.00760000  0.00763000  1
  Zr  Zr8  1  0.49237000  0.62271000  0.50760000  1
  Zr  Zr9  1  0.99237000  0.87729000  0.49240000  1
  Zr  Zr10  1  0.50763000  0.12271000  0.99240000  1
  Zr  Zr11  1  0.00763000  0.37729000  0.00760000  1
  Zr  Zr12  1  0.49240000  0.50763000  0.37729000  1
  Zr  Zr13  1  0.00760000  0.49237000  0.87729000  1
  Zr  Zr14  1  0.99240000  0.99237000  0.62271000  1
  Zr  Zr15  1  0.50760000  0.00763000  0.12271000  1
  Zr  Zr16  1  0.37729000  0.49240000  0.50763000  1
  Zr  Zr17  1  0.12271000  0.50760000  0.00763000  1
  Zr  Zr18  1  0.87729000  0.00760000  0.49237000  1
  Zr  Zr19  1  0.62271000  0.99240000  0.99237000  1
  Zr  Zr20  1  0.50763000  0.37729000  0.49240000  1
  Zr  Zr21  1  0.00763000  0.12271000  0.50760000  1
  Zr  Zr22  1  0.49237000  0.87729000  0.00760000  1
  Zr  Zr23  1  0.99237000  0.62271000  0.99240000  1
  H  H24  1  0.79857000  0.50841000  0.60121000  1
  H  H25  1  0.70405000  0.47637000  0.79539000  1
  H  H26  1  0.70143000  0.49159000  0.10121000  1
  H  H27  1  0.79595000  0.52363000  0.29539000  1
  H  H28  1  0.29857000  0.99159000  0.39879000  1
  H  H29  1  0.20405000  0.02363000  0.20461000  1
  H  H30  1  0.20143000  0.00841000  0.89879000  1
  H  H31  1  0.29595000  0.97637000  0.70461000  1
  H  H32  1  0.60121000  0.79857000  0.50841000  1
  H  H33  1  0.79539000  0.70405000  0.47637000  1
  H  H34  1  0.89879000  0.20143000  0.00841000  1
  H  H35  1  0.70461000  0.29595000  0.97637000  1
  H  H36  1  0.10121000  0.70143000  0.49159000  1
  H  H37  1  0.29539000  0.79595000  0.52363000  1
  H  H38  1  0.39879000  0.29857000  0.99159000  1
  H  H39  1  0.20461000  0.20405000  0.02363000  1
  H  H40  1  0.50841000  0.60121000  0.79857000  1
  H  H41  1  0.47637000  0.79539000  0.70405000  1
  H  H42  1  0.00841000  0.89879000  0.20143000  1
  H  H43  1  0.97637000  0.70461000  0.29595000  1
  H  H44  1  0.49159000  0.10121000  0.70143000  1
  H  H45  1  0.52363000  0.29539000  0.79595000  1
  H  H46  1  0.99159000  0.39879000  0.29857000  1
  H  H47  1  0.02363000  0.20461000  0.20405000  1
  H  H48  1  0.20143000  0.49159000  0.39879000  1
  H  H49  1  0.29595000  0.52363000  0.20461000  1
  H  H50  1  0.29857000  0.50841000  0.89879000  1
  H  H51  1  0.20405000  0.47637000  0.70461000  1
  H  H52  1  0.70143000  0.00841000  0.60121000  1
  H  H53  1  0.79595000  0.97637000  0.79539000  1
  H  H54  1  0.79857000  0.99159000  0.10121000  1
  H  H55  1  0.70405000  0.02363000  0.29539000  1
  H  H56  1  0.39879000  0.20143000  0.49159000  1
  H  H57  1  0.20461000  0.29595000  0.52363000  1
  H  H58  1  0.10121000  0.79857000  0.99159000  1
  H  H59  1  0.29539000  0.70405000  0.02363000  1
  H  H60  1  0.89879000  0.29857000  0.50841000  1
  H  H61  1  0.70461000  0.20405000  0.47637000  1
  H  H62  1  0.60121000  0.70143000  0.00841000  1
  H  H63  1  0.79539000  0.79595000  0.97637000  1
  H  H64  1  0.49159000  0.39879000  0.20143000  1
  H  H65  1  0.52363000  0.20461000  0.29595000  1
  H  H66  1  0.99159000  0.10121000  0.79857000  1
  H  H67  1  0.02363000  0.29539000  0.70405000  1
  H  H68  1  0.50841000  0.89879000  0.29857000  1
  H  H69  1  0.47637000  0.70461000  0.20405000  1
  H  H70  1  0.00841000  0.60121000  0.70143000  1
  H  H71  1  0.97637000  0.79539000  0.79595000  1
  C  C72  1  0.66959000  0.49799000  0.64742000  1
  C  C73  1  0.73514000  0.49373000  0.68815000  1
  C  C74  1  0.86753000  0.48090000  0.82499000  1
  C  C75  1  0.82011000  0.48493000  0.76428000  1
  C  C76  1  0.74828000  0.48349000  0.75821000  1
  C  C77  1  0.83041000  0.50201000  0.14742000  1
  C  C78  1  0.76486000  0.50627000  0.18815000  1
  C  C79  1  0.63247000  0.51910000  0.32499000  1
  C  C80  1  0.67989000  0.51507000  0.26428000  1
  C  C81  1  0.75172000  0.51651000  0.25821000  1
  C  C82  1  0.16959000  0.00201000  0.35258000  1
  C  C83  1  0.23514000  0.00627000  0.31185000  1
  C  C84  1  0.36753000  0.01910000  0.17501000  1
  C  C85  1  0.32011000  0.01507000  0.23572000  1
  C  C86  1  0.24828000  0.01651000  0.24179000  1
  C  C87  1  0.33041000  0.99799000  0.85258000  1
  C  C88  1  0.26486000  0.99373000  0.81185000  1
  C  C89  1  0.13247000  0.98090000  0.67501000  1
  C  C90  1  0.17989000  0.98493000  0.73572000  1
  C  C91  1  0.25172000  0.98349000  0.74179000  1
  C  C92  1  0.64742000  0.66959000  0.49799000  1
  C  C93  1  0.68815000  0.73514000  0.49373000  1
  C  C94  1  0.82499000  0.86753000  0.48090000  1
  C  C95  1  0.76428000  0.82011000  0.48493000  1
  C  C96  1  0.75821000  0.74828000  0.48349000  1
  C  C97  1  0.85258000  0.33041000  0.99799000  1
  C  C98  1  0.81185000  0.26486000  0.99373000  1
  C  C99  1  0.67501000  0.13247000  0.98090000  1
  C  C100  1  0.73572000  0.17989000  0.98493000  1
  C  C101  1  0.74179000  0.25172000  0.98349000  1
  C  C102  1  0.14742000  0.83041000  0.50201000  1
  C  C103  1  0.18815000  0.76486000  0.50627000  1
  C  C104  1  0.32499000  0.63247000  0.51910000  1
  C  C105  1  0.26428000  0.67989000  0.51507000  1
  C  C106  1  0.25821000  0.75172000  0.51651000  1
  C  C107  1  0.35258000  0.16959000  0.00201000  1
  C  C108  1  0.31185000  0.23514000  0.00627000  1
  C  C109  1  0.17501000  0.36753000  0.01910000  1
  C  C110  1  0.23572000  0.32011000  0.01507000  1
  C  C111  1  0.24179000  0.24828000  0.01651000  1
  C  C112  1  0.49799000  0.64742000  0.66959000  1
  C  C113  1  0.49373000  0.68815000  0.73514000  1
  C  C114  1  0.48090000  0.82499000  0.86753000  1
  C  C115  1  0.48493000  0.76428000  0.82011000  1
  C  C116  1  0.48349000  0.75821000  0.74828000  1
  C  C117  1  0.99799000  0.85258000  0.33041000  1
  C  C118  1  0.99373000  0.81185000  0.26486000  1
  C  C119  1  0.98090000  0.67501000  0.13247000  1
  C  C120  1  0.98493000  0.73572000  0.17989000  1
  C  C121  1  0.98349000  0.74179000  0.25172000  1
  C  C122  1  0.50201000  0.14742000  0.83041000  1
  C  C123  1  0.50627000  0.18815000  0.76486000  1
  C  C124  1  0.51910000  0.32499000  0.63247000  1
  C  C125  1  0.51507000  0.26428000  0.67989000  1
  C  C126  1  0.51651000  0.25821000  0.75172000  1
  C  C127  1  0.00201000  0.35258000  0.16959000  1
  C  C128  1  0.00627000  0.31185000  0.23514000  1
  C  C129  1  0.01910000  0.17501000  0.36753000  1
  C  C130  1  0.01507000  0.23572000  0.32011000  1
  C  C131  1  0.01651000  0.24179000  0.24828000  1
  C  C132  1  0.33041000  0.50201000  0.35258000  1
  C  C133  1  0.26486000  0.50627000  0.31185000  1
  C  C134  1  0.13247000  0.51910000  0.17501000  1
  C  C135  1  0.17989000  0.51507000  0.23572000  1
  C  C136  1  0.25172000  0.51651000  0.24179000  1
  C  C137  1  0.16959000  0.49799000  0.85258000  1
  C  C138  1  0.23514000  0.49373000  0.81185000  1
  C  C139  1  0.36753000  0.48090000  0.67501000  1
  C  C140  1  0.32011000  0.48493000  0.73572000  1
  C  C141  1  0.24828000  0.48349000  0.74179000  1
  C  C142  1  0.83041000  0.99799000  0.64742000  1
  C  C143  1  0.76486000  0.99373000  0.68815000  1
  C  C144  1  0.63247000  0.98090000  0.82499000  1
  C  C145  1  0.67989000  0.98493000  0.76428000  1
  C  C146  1  0.75172000  0.98349000  0.75821000  1
  C  C147  1  0.66959000  0.00201000  0.14742000  1
  C  C148  1  0.73514000  0.00627000  0.18815000  1
  C  C149  1  0.86753000  0.01910000  0.32499000  1
  C  C150  1  0.82011000  0.01507000  0.26428000  1
  C  C151  1  0.74828000  0.01651000  0.25821000  1
  C  C152  1  0.35258000  0.33041000  0.50201000  1
  C  C153  1  0.31185000  0.26486000  0.50627000  1
  C  C154  1  0.17501000  0.13247000  0.51910000  1
  C  C155  1  0.23572000  0.17989000  0.51507000  1
  C  C156  1  0.24179000  0.25172000  0.51651000  1
  C  C157  1  0.14742000  0.66959000  0.00201000  1
  C  C158  1  0.18815000  0.73514000  0.00627000  1
  C  C159  1  0.32499000  0.86753000  0.01910000  1
  C  C160  1  0.26428000  0.82011000  0.01507000  1
  C  C161  1  0.25821000  0.74828000  0.01651000  1
  C  C162  1  0.85258000  0.16959000  0.49799000  1
  C  C163  1  0.81185000  0.23514000  0.49373000  1
  C  C164  1  0.67501000  0.36753000  0.48090000  1
  C  C165  1  0.73572000  0.32011000  0.48493000  1
  C  C166  1  0.74179000  0.24828000  0.48349000  1
  C  C167  1  0.64742000  0.83041000  0.99799000  1
  C  C168  1  0.68815000  0.76486000  0.99373000  1
  C  C169  1  0.82499000  0.63247000  0.98090000  1
  C  C170  1  0.76428000  0.67989000  0.98493000  1
  C  C171  1  0.75821000  0.75172000  0.98349000  1
  C  C172  1  0.50201000  0.35258000  0.33041000  1
  C  C173  1  0.50627000  0.31185000  0.26486000  1
  C  C174  1  0.51910000  0.17501000  0.13247000  1
  C  C175  1  0.51507000  0.23572000  0.17989000  1
  C  C176  1  0.51651000  0.24179000  0.25172000  1
  C  C177  1  0.00201000  0.14742000  0.66959000  1
  C  C178  1  0.00627000  0.18815000  0.73514000  1
  C  C179  1  0.01910000  0.32499000  0.86753000  1
  C  C180  1  0.01507000  0.26428000  0.82011000  1
  C  C181  1  0.01651000  0.25821000  0.74828000  1
  C  C182  1  0.49799000  0.85258000  0.16959000  1
  C  C183  1  0.49373000  0.81185000  0.23514000  1
  C  C184  1  0.48090000  0.67501000  0.36753000  1
  C  C185  1  0.48493000  0.73572000  0.32011000  1
  C  C186  1  0.48349000  0.74179000  0.24828000  1
  C  C187  1  0.99799000  0.64742000  0.83041000  1
  C  C188  1  0.99373000  0.68815000  0.76486000  1
  C  C189  1  0.98090000  0.82499000  0.63247000  1
  C  C190  1  0.98493000  0.76428000  0.67989000  1
  C  C191  1  0.98349000  0.75821000  0.75172000  1
  N  N192  1  0.79598000  0.50010000  0.65723000  1
  N  N193  1  0.84605000  0.49507000  0.70169000  1
  N  N194  1  0.70402000  0.49990000  0.15723000  1
  N  N195  1  0.65395000  0.50493000  0.20169000  1
  N  N196  1  0.29598000  0.99990000  0.34277000  1
  N  N197  1  0.34605000  0.00493000  0.29831000  1
  N  N198  1  0.20402000  0.00010000  0.84277000  1
  N  N199  1  0.15395000  0.99507000  0.79831000  1
  N  N200  1  0.65723000  0.79598000  0.50010000  1
  N  N201  1  0.70169000  0.84605000  0.49507000  1
  N  N202  1  0.84277000  0.20402000  0.00010000  1
  N  N203  1  0.79831000  0.15395000  0.99507000  1
  N  N204  1  0.15723000  0.70402000  0.49990000  1
  N  N205  1  0.20169000  0.65395000  0.50493000  1
  N  N206  1  0.34277000  0.29598000  0.99990000  1
  N  N207  1  0.29831000  0.34605000  0.00493000  1
  N  N208  1  0.50010000  0.65723000  0.79598000  1
  N  N209  1  0.49507000  0.70169000  0.84605000  1
  N  N210  1  0.00010000  0.84277000  0.20402000  1
  N  N211  1  0.99507000  0.79831000  0.15395000  1
  N  N212  1  0.49990000  0.15723000  0.70402000  1
  N  N213  1  0.50493000  0.20169000  0.65395000  1
  N  N214  1  0.99990000  0.34277000  0.29598000  1
  N  N215  1  0.00493000  0.29831000  0.34605000  1
  N  N216  1  0.20402000  0.49990000  0.34277000  1
  N  N217  1  0.15395000  0.50493000  0.29831000  1
  N  N218  1  0.29598000  0.50010000  0.84277000  1
  N  N219  1  0.34605000  0.49507000  0.79831000  1
  N  N220  1  0.70402000  0.00010000  0.65723000  1
  N  N221  1  0.65395000  0.99507000  0.70169000  1
  N  N222  1  0.79598000  0.99990000  0.15723000  1
  N  N223  1  0.84605000  0.00493000  0.20169000  1
  N  N224  1  0.34277000  0.20402000  0.49990000  1
  N  N225  1  0.29831000  0.15395000  0.50493000  1
  N  N226  1  0.15723000  0.79598000  0.99990000  1
  N  N227  1  0.20169000  0.84605000  0.00493000  1
  N  N228  1  0.84277000  0.29598000  0.50010000  1
  N  N229  1  0.79831000  0.34605000  0.49507000  1
  N  N230  1  0.65723000  0.70402000  0.00010000  1
  N  N231  1  0.70169000  0.65395000  0.99507000  1
  N  N232  1  0.49990000  0.34277000  0.20402000  1
  N  N233  1  0.50493000  0.29831000  0.15395000  1
  N  N234  1  0.99990000  0.15723000  0.79598000  1
  N  N235  1  0.00493000  0.20169000  0.84605000  1
  N  N236  1  0.50010000  0.84277000  0.29598000  1
  N  N237  1  0.49507000  0.79831000  0.34605000  1
  N  N238  1  0.00010000  0.65723000  0.70402000  1
  N  N239  1  0.99507000  0.70169000  0.65395000  1
  O  O240  1  0.57201000  0.43553000  0.55293000  1
  O  O241  1  0.93042000  0.47940000  0.80520000  1
  O  O242  1  0.60770000  0.50080000  0.66950000  1
  O  O243  1  0.83983000  0.47910000  0.88413000  1
  O  O244  1  0.68510000  0.49880000  0.58383000  1
  O  O245  1  0.56580000  0.56580000  0.56580000  1
  O  O246  1  0.92799000  0.56447000  0.05293000  1
  O  O247  1  0.56958000  0.52060000  0.30520000  1
  O  O248  1  0.89230000  0.49920000  0.16950000  1
  O  O249  1  0.66017000  0.52090000  0.38413000  1
  O  O250  1  0.81490000  0.50120000  0.08383000  1
  O  O251  1  0.93420000  0.43420000  0.06580000  1
  O  O252  1  0.07201000  0.06447000  0.44707000  1
  O  O253  1  0.43042000  0.02060000  0.19480000  1
  O  O254  1  0.10770000  0.99920000  0.33050000  1
  O  O255  1  0.33983000  0.02090000  0.11587000  1
  O  O256  1  0.18510000  0.00120000  0.41617000  1
  O  O257  1  0.06580000  0.93420000  0.43420000  1
  O  O258  1  0.42799000  0.93553000  0.94707000  1
  O  O259  1  0.06958000  0.97940000  0.69480000  1
  O  O260  1  0.39230000  0.00080000  0.83050000  1
  O  O261  1  0.16017000  0.97910000  0.61587000  1
  O  O262  1  0.31490000  0.99880000  0.91617000  1
  O  O263  1  0.43420000  0.06580000  0.93420000  1
  O  O264  1  0.55293000  0.57201000  0.43553000  1
  O  O265  1  0.80520000  0.93042000  0.47940000  1
  O  O266  1  0.66950000  0.60770000  0.50080000  1
  O  O267  1  0.88413000  0.83983000  0.47910000  1
  O  O268  1  0.58383000  0.68510000  0.49880000  1
  O  O269  1  0.94707000  0.42799000  0.93553000  1
  O  O270  1  0.69480000  0.06958000  0.97940000  1
  O  O271  1  0.83050000  0.39230000  0.00080000  1
  O  O272  1  0.61587000  0.16017000  0.97910000  1
  O  O273  1  0.91617000  0.31490000  0.99880000  1
  O  O274  1  0.05293000  0.92799000  0.56447000  1
  O  O275  1  0.30520000  0.56958000  0.52060000  1
  O  O276  1  0.16950000  0.89230000  0.49920000  1
  O  O277  1  0.38413000  0.66017000  0.52090000  1
  O  O278  1  0.08383000  0.81490000  0.50120000  1
  O  O279  1  0.44707000  0.07201000  0.06447000  1
  O  O280  1  0.19480000  0.43042000  0.02060000  1
  O  O281  1  0.33050000  0.10770000  0.99920000  1
  O  O282  1  0.11587000  0.33983000  0.02090000  1
  O  O283  1  0.41617000  0.18510000  0.00120000  1
  O  O284  1  0.43553000  0.55293000  0.57201000  1
  O  O285  1  0.47940000  0.80520000  0.93042000  1
  O  O286  1  0.50080000  0.66950000  0.60770000  1
  O  O287  1  0.47910000  0.88413000  0.83983000  1
  O  O288  1  0.49880000  0.58383000  0.68510000  1
  O  O289  1  0.93553000  0.94707000  0.42799000  1
  O  O290  1  0.97940000  0.69480000  0.06958000  1
  O  O291  1  0.00080000  0.83050000  0.39230000  1
  O  O292  1  0.97910000  0.61587000  0.16017000  1
  O  O293  1  0.99880000  0.91617000  0.31490000  1
  O  O294  1  0.56447000  0.05293000  0.92799000  1
  O  O295  1  0.52060000  0.30520000  0.56958000  1
  O  O296  1  0.49920000  0.16950000  0.89230000  1
  O  O297  1  0.52090000  0.38413000  0.66017000  1
  O  O298  1  0.50120000  0.08383000  0.81490000  1
  O  O299  1  0.06447000  0.44707000  0.07201000  1
  O  O300  1  0.02060000  0.19480000  0.43042000  1
  O  O301  1  0.99920000  0.33050000  0.10770000  1
  O  O302  1  0.02090000  0.11587000  0.33983000  1
  O  O303  1  0.00120000  0.41617000  0.18510000  1
  O  O304  1  0.42799000  0.56447000  0.44707000  1
  O  O305  1  0.06958000  0.52060000  0.19480000  1
  O  O306  1  0.39230000  0.49920000  0.33050000  1
  O  O307  1  0.16017000  0.52090000  0.11587000  1
  O  O308  1  0.31490000  0.50120000  0.41617000  1
  O  O309  1  0.43420000  0.43420000  0.43420000  1
  O  O310  1  0.07201000  0.43553000  0.94707000  1
  O  O311  1  0.43042000  0.47940000  0.69480000  1
  O  O312  1  0.10770000  0.50080000  0.83050000  1
  O  O313  1  0.33983000  0.47910000  0.61587000  1
  O  O314  1  0.18510000  0.49880000  0.91617000  1
  O  O315  1  0.06580000  0.56580000  0.93420000  1
  O  O316  1  0.92799000  0.93553000  0.55293000  1
  O  O317  1  0.56958000  0.97940000  0.80520000  1
  O  O318  1  0.89230000  0.00080000  0.66950000  1
  O  O319  1  0.66017000  0.97910000  0.88413000  1
  O  O320  1  0.81490000  0.99880000  0.58383000  1
  O  O321  1  0.93420000  0.06580000  0.56580000  1
  O  O322  1  0.57201000  0.06447000  0.05293000  1
  O  O323  1  0.93042000  0.02060000  0.30520000  1
  O  O324  1  0.60770000  0.99920000  0.16950000  1
  O  O325  1  0.83983000  0.02090000  0.38413000  1
  O  O326  1  0.68510000  0.00120000  0.08383000  1
  O  O327  1  0.56580000  0.93420000  0.06580000  1
  O  O328  1  0.44707000  0.42799000  0.56447000  1
  O  O329  1  0.19480000  0.06958000  0.52060000  1
  O  O330  1  0.33050000  0.39230000  0.49920000  1
  O  O331  1  0.11587000  0.16017000  0.52090000  1
  O  O332  1  0.41617000  0.31490000  0.50120000  1
  O  O333  1  0.05293000  0.57201000  0.06447000  1
  O  O334  1  0.30520000  0.93042000  0.02060000  1
  O  O335  1  0.16950000  0.60770000  0.99920000  1
  O  O336  1  0.38413000  0.83983000  0.02090000  1
  O  O337  1  0.08383000  0.68510000  0.00120000  1
  O  O338  1  0.94707000  0.07201000  0.43553000  1
  O  O339  1  0.69480000  0.43042000  0.47940000  1
  O  O340  1  0.83050000  0.10770000  0.50080000  1
  O  O341  1  0.61587000  0.33983000  0.47910000  1
  O  O342  1  0.91617000  0.18510000  0.49880000  1
  O  O343  1  0.55293000  0.92799000  0.93553000  1
  O  O344  1  0.80520000  0.56958000  0.97940000  1
  O  O345  1  0.66950000  0.89230000  0.00080000  1
  O  O346  1  0.88413000  0.66017000  0.97910000  1
  O  O347  1  0.58383000  0.81490000  0.99880000  1
  O  O348  1  0.56447000  0.44707000  0.42799000  1
  O  O349  1  0.52060000  0.19480000  0.06958000  1
  O  O350  1  0.49920000  0.33050000  0.39230000  1
  O  O351  1  0.52090000  0.11587000  0.16017000  1
  O  O352  1  0.50120000  0.41617000  0.31490000  1
  O  O353  1  0.06447000  0.05293000  0.57201000  1
  O  O354  1  0.02060000  0.30520000  0.93042000  1
  O  O355  1  0.99920000  0.16950000  0.60770000  1
  O  O356  1  0.02090000  0.38413000  0.83983000  1
  O  O357  1  0.00120000  0.08383000  0.68510000  1
  O  O358  1  0.43553000  0.94707000  0.07201000  1
  O  O359  1  0.47940000  0.69480000  0.43042000  1
  O  O360  1  0.50080000  0.83050000  0.10770000  1
  O  O361  1  0.47910000  0.61587000  0.33983000  1
  O  O362  1  0.49880000  0.91617000  0.18510000  1
  O  O363  1  0.93553000  0.55293000  0.92799000  1
  O  O364  1  0.97940000  0.80520000  0.56958000  1
  O  O365  1  0.00080000  0.66950000  0.89230000  1
  O  O366  1  0.97910000  0.88413000  0.66017000  1
  O  O367  1  0.99880000  0.58383000  0.81490000  1
