# generated using pymatgen
data_Zr3C10(NO3)4
_symmetry_space_group_name_H-M   'P 1'
_cell_length_a   27.06825972
_cell_length_b   27.06825972
_cell_length_c   27.06825972
_cell_angle_alpha   60.00000000
_cell_angle_beta   60.00000000
_cell_angle_gamma   60.00000000
_symmetry_Int_Tables_number   1
_chemical_formula_structural   Zr3C10(NO3)4
_chemical_formula_sum   'Zr36 C120 N48 O144'
_cell_volume   14023.80959622
_cell_formula_units_Z   12
loop_
 _symmetry_equiv_pos_site_id
 _symmetry_equiv_pos_as_xyz
  1  'x, y, z'
loop_
 _atom_site_type_symbol
 _atom_site_label
 _atom_site_symmetry_multiplicity
 _atom_site_fract_x
 _atom_site_fract_y
 _atom_site_fract_z
 _atom_site_occupancy
  C  C0  1  0.67643000  0.86943000  0.02831000  1
  C  C1  1  0.74172000  0.82706000  0.02504000  1
  C  C2  1  0.42583000  0.02831000  0.86943000  1
  C  C3  1  0.40618000  0.02504000  0.82706000  1
  C  C4  1  0.02831000  0.42583000  0.67643000  1
  C  C5  1  0.02504000  0.40618000  0.74172000  1
  C  C6  1  0.86943000  0.67643000  0.42583000  1
  C  C7  1  0.82706000  0.74172000  0.40618000  1
  C  C8  1  0.86943000  0.02831000  0.67643000  1
  C  C9  1  0.82706000  0.02504000  0.74172000  1
  C  C10  1  0.02831000  0.86943000  0.42583000  1
  C  C11  1  0.02504000  0.82706000  0.40618000  1
  C  C12  1  0.42583000  0.67643000  0.02831000  1
  C  C13  1  0.40618000  0.74172000  0.02504000  1
  C  C14  1  0.67643000  0.42583000  0.86943000  1
  C  C15  1  0.74172000  0.40618000  0.82706000  1
  C  C16  1  0.02831000  0.67643000  0.86943000  1
  C  C17  1  0.02504000  0.74172000  0.82706000  1
  C  C18  1  0.86943000  0.42583000  0.02831000  1
  C  C19  1  0.82706000  0.40618000  0.02504000  1
  C  C20  1  0.67643000  0.02831000  0.42583000  1
  C  C21  1  0.74172000  0.02504000  0.40618000  1
  C  C22  1  0.42583000  0.86943000  0.67643000  1
  C  C23  1  0.40618000  0.82706000  0.74172000  1
  C  C24  1  0.57417000  0.13057000  0.97169000  1
  C  C25  1  0.59382000  0.17294000  0.97496000  1
  C  C26  1  0.32357000  0.97169000  0.13057000  1
  C  C27  1  0.25828000  0.97496000  0.17294000  1
  C  C28  1  0.13057000  0.57417000  0.32357000  1
  C  C29  1  0.17294000  0.59382000  0.25828000  1
  C  C30  1  0.97169000  0.32357000  0.57417000  1
  C  C31  1  0.97496000  0.25828000  0.59382000  1
  C  C32  1  0.57417000  0.97169000  0.32357000  1
  C  C33  1  0.59382000  0.97496000  0.25828000  1
  C  C34  1  0.32357000  0.13057000  0.57417000  1
  C  C35  1  0.25828000  0.17294000  0.59382000  1
  C  C36  1  0.13057000  0.32357000  0.97169000  1
  C  C37  1  0.17294000  0.25828000  0.97496000  1
  C  C38  1  0.97169000  0.57417000  0.13057000  1
  C  C39  1  0.97496000  0.59382000  0.17294000  1
  C  C40  1  0.57417000  0.32357000  0.13057000  1
  C  C41  1  0.59382000  0.25828000  0.17294000  1
  C  C42  1  0.32357000  0.57417000  0.97169000  1
  C  C43  1  0.25828000  0.59382000  0.97496000  1
  C  C44  1  0.13057000  0.97169000  0.57417000  1
  C  C45  1  0.17294000  0.97496000  0.59382000  1
  C  C46  1  0.97169000  0.13057000  0.32357000  1
  C  C47  1  0.97496000  0.17294000  0.25828000  1
  C  C48  1  0.32357000  0.13057000  0.97169000  1
  C  C49  1  0.25828000  0.17294000  0.97496000  1
  C  C50  1  0.57417000  0.97169000  0.13057000  1
  C  C51  1  0.59382000  0.97496000  0.17294000  1
  C  C52  1  0.97169000  0.57417000  0.32357000  1
  C  C53  1  0.97496000  0.59382000  0.25828000  1
  C  C54  1  0.13057000  0.32357000  0.57417000  1
  C  C55  1  0.17294000  0.25828000  0.59382000  1
  C  C56  1  0.13057000  0.97169000  0.32357000  1
  C  C57  1  0.17294000  0.97496000  0.25828000  1
  C  C58  1  0.97169000  0.13057000  0.57417000  1
  C  C59  1  0.97496000  0.17294000  0.59382000  1
  C  C60  1  0.57417000  0.32357000  0.97169000  1
  C  C61  1  0.59382000  0.25828000  0.97496000  1
  C  C62  1  0.32357000  0.57417000  0.13057000  1
  C  C63  1  0.25828000  0.59382000  0.17294000  1
  C  C64  1  0.97169000  0.32357000  0.13057000  1
  C  C65  1  0.97496000  0.25828000  0.17294000  1
  C  C66  1  0.13057000  0.57417000  0.97169000  1
  C  C67  1  0.17294000  0.59382000  0.97496000  1
  C  C68  1  0.32357000  0.97169000  0.57417000  1
  C  C69  1  0.25828000  0.97496000  0.59382000  1
  C  C70  1  0.57417000  0.13057000  0.32357000  1
  C  C71  1  0.59382000  0.17294000  0.25828000  1
  C  C72  1  0.42583000  0.86943000  0.02831000  1
  C  C73  1  0.40618000  0.82706000  0.02504000  1
  C  C74  1  0.67643000  0.02831000  0.86943000  1
  C  C75  1  0.74172000  0.02504000  0.82706000  1
  C  C76  1  0.86943000  0.42583000  0.67643000  1
  C  C77  1  0.82706000  0.40618000  0.74172000  1
  C  C78  1  0.02831000  0.67643000  0.42583000  1
  C  C79  1  0.02504000  0.74172000  0.40618000  1
  C  C80  1  0.42583000  0.02831000  0.67643000  1
  C  C81  1  0.40618000  0.02504000  0.74172000  1
  C  C82  1  0.67643000  0.86943000  0.42583000  1
  C  C83  1  0.74172000  0.82706000  0.40618000  1
  C  C84  1  0.86943000  0.67643000  0.02831000  1
  C  C85  1  0.82706000  0.74172000  0.02504000  1
  C  C86  1  0.02831000  0.42583000  0.86943000  1
  C  C87  1  0.02504000  0.40618000  0.82706000  1
  C  C88  1  0.42583000  0.67643000  0.86943000  1
  C  C89  1  0.40618000  0.74172000  0.82706000  1
  C  C90  1  0.67643000  0.42583000  0.02831000  1
  C  C91  1  0.74172000  0.40618000  0.02504000  1
  C  C92  1  0.86943000  0.02831000  0.42583000  1
  C  C93  1  0.82706000  0.02504000  0.40618000  1
  C  C94  1  0.02831000  0.86943000  0.67643000  1
  C  C95  1  0.02504000  0.82706000  0.74172000  1
  C  C96  1  0.76510000  0.76510000  0.03374000  1
  C  C97  1  0.43606000  0.03374000  0.76510000  1
  C  C98  1  0.03374000  0.43606000  0.76510000  1
  C  C99  1  0.76510000  0.76510000  0.43606000  1
  C  C100  1  0.76510000  0.03374000  0.76510000  1
  C  C101  1  0.03374000  0.76510000  0.43606000  1
  C  C102  1  0.43606000  0.76510000  0.03374000  1
  C  C103  1  0.76510000  0.43606000  0.76510000  1
  C  C104  1  0.03374000  0.76510000  0.76510000  1
  C  C105  1  0.76510000  0.43606000  0.03374000  1
  C  C106  1  0.76510000  0.03374000  0.43606000  1
  C  C107  1  0.43606000  0.76510000  0.76510000  1
  C  C108  1  0.56394000  0.23490000  0.96626000  1
  C  C109  1  0.23490000  0.96626000  0.23490000  1
  C  C110  1  0.23490000  0.56394000  0.23490000  1
  C  C111  1  0.96626000  0.23490000  0.56394000  1
  C  C112  1  0.56394000  0.96626000  0.23490000  1
  C  C113  1  0.23490000  0.23490000  0.56394000  1
  C  C114  1  0.23490000  0.23490000  0.96626000  1
  C  C115  1  0.96626000  0.56394000  0.23490000  1
  C  C116  1  0.56394000  0.23490000  0.23490000  1
  C  C117  1  0.23490000  0.56394000  0.96626000  1
  C  C118  1  0.23490000  0.96626000  0.56394000  1
  C  C119  1  0.96626000  0.23490000  0.23490000  1
  N  N120  1  0.78976000  0.83862000  0.01170000  1
  N  N121  1  0.35992000  0.01170000  0.83862000  1
  N  N122  1  0.01170000  0.35992000  0.78976000  1
  N  N123  1  0.83862000  0.78976000  0.35992000  1
  N  N124  1  0.83862000  0.01170000  0.78976000  1
  N  N125  1  0.01170000  0.83862000  0.35992000  1
  N  N126  1  0.35992000  0.78976000  0.01170000  1
  N  N127  1  0.78976000  0.35992000  0.83862000  1
  N  N128  1  0.01170000  0.78976000  0.83862000  1
  N  N129  1  0.83862000  0.35992000  0.01170000  1
  N  N130  1  0.78976000  0.01170000  0.35992000  1
  N  N131  1  0.35992000  0.83862000  0.78976000  1
  N  N132  1  0.64008000  0.16138000  0.98830000  1
  N  N133  1  0.21024000  0.98830000  0.16138000  1
  N  N134  1  0.16138000  0.64008000  0.21024000  1
  N  N135  1  0.98830000  0.21024000  0.64008000  1
  N  N136  1  0.64008000  0.98830000  0.21024000  1
  N  N137  1  0.21024000  0.16138000  0.64008000  1
  N  N138  1  0.16138000  0.21024000  0.98830000  1
  N  N139  1  0.98830000  0.64008000  0.16138000  1
  N  N140  1  0.64008000  0.21024000  0.16138000  1
  N  N141  1  0.21024000  0.64008000  0.98830000  1
  N  N142  1  0.16138000  0.98830000  0.64008000  1
  N  N143  1  0.98830000  0.16138000  0.21024000  1
  N  N144  1  0.21024000  0.16138000  0.98830000  1
  N  N145  1  0.64008000  0.98830000  0.16138000  1
  N  N146  1  0.98830000  0.64008000  0.21024000  1
  N  N147  1  0.16138000  0.21024000  0.64008000  1
  N  N148  1  0.16138000  0.98830000  0.21024000  1
  N  N149  1  0.98830000  0.16138000  0.64008000  1
  N  N150  1  0.64008000  0.21024000  0.98830000  1
  N  N151  1  0.21024000  0.64008000  0.16138000  1
  N  N152  1  0.98830000  0.21024000  0.16138000  1
  N  N153  1  0.16138000  0.64008000  0.98830000  1
  N  N154  1  0.21024000  0.98830000  0.64008000  1
  N  N155  1  0.64008000  0.16138000  0.21024000  1
  N  N156  1  0.35992000  0.83862000  0.01170000  1
  N  N157  1  0.78976000  0.01170000  0.83862000  1
  N  N158  1  0.83862000  0.35992000  0.78976000  1
  N  N159  1  0.01170000  0.78976000  0.35992000  1
  N  N160  1  0.35992000  0.01170000  0.78976000  1
  N  N161  1  0.78976000  0.83862000  0.35992000  1
  N  N162  1  0.83862000  0.78976000  0.01170000  1
  N  N163  1  0.01170000  0.35992000  0.83862000  1
  N  N164  1  0.35992000  0.78976000  0.83862000  1
  N  N165  1  0.78976000  0.35992000  0.01170000  1
  N  N166  1  0.83862000  0.01170000  0.35992000  1
  N  N167  1  0.01170000  0.83862000  0.78976000  1
  O  O168  1  0.63306000  0.03878000  0.85588000  1
  O  O169  1  0.66933000  0.92307000  0.01487000  1
  O  O170  1  0.47228000  0.85588000  0.03878000  1
  O  O171  1  0.39273000  0.01487000  0.92307000  1
  O  O172  1  0.85588000  0.47228000  0.63306000  1
  O  O173  1  0.01487000  0.39273000  0.66933000  1
  O  O174  1  0.03878000  0.63306000  0.47228000  1
  O  O175  1  0.92307000  0.66933000  0.39273000  1
  O  O176  1  0.03878000  0.85588000  0.63306000  1
  O  O177  1  0.92307000  0.01487000  0.66933000  1
  O  O178  1  0.85588000  0.03878000  0.47228000  1
  O  O179  1  0.01487000  0.92307000  0.39273000  1
  O  O180  1  0.47228000  0.63306000  0.85588000  1
  O  O181  1  0.39273000  0.66933000  0.01487000  1
  O  O182  1  0.63306000  0.47228000  0.03878000  1
  O  O183  1  0.66933000  0.39273000  0.92307000  1
  O  O184  1  0.85588000  0.63306000  0.03878000  1
  O  O185  1  0.01487000  0.66933000  0.92307000  1
  O  O186  1  0.03878000  0.47228000  0.85588000  1
  O  O187  1  0.92307000  0.39273000  0.01487000  1
  O  O188  1  0.63306000  0.85588000  0.47228000  1
  O  O189  1  0.66933000  0.01487000  0.39273000  1
  O  O190  1  0.47228000  0.03878000  0.63306000  1
  O  O191  1  0.39273000  0.92307000  0.66933000  1
  O  O192  1  0.52772000  0.96122000  0.14412000  1
  O  O193  1  0.60727000  0.07693000  0.98513000  1
  O  O194  1  0.36694000  0.14412000  0.96122000  1
  O  O195  1  0.33067000  0.98513000  0.07693000  1
  O  O196  1  0.96122000  0.52772000  0.36694000  1
  O  O197  1  0.07693000  0.60727000  0.33067000  1
  O  O198  1  0.14412000  0.36694000  0.52772000  1
  O  O199  1  0.98513000  0.33067000  0.60727000  1
  O  O200  1  0.52772000  0.14412000  0.36694000  1
  O  O201  1  0.60727000  0.98513000  0.33067000  1
  O  O202  1  0.36694000  0.96122000  0.52772000  1
  O  O203  1  0.33067000  0.07693000  0.60727000  1
  O  O204  1  0.96122000  0.36694000  0.14412000  1
  O  O205  1  0.07693000  0.33067000  0.98513000  1
  O  O206  1  0.14412000  0.52772000  0.96122000  1
  O  O207  1  0.98513000  0.60727000  0.07693000  1
  O  O208  1  0.52772000  0.36694000  0.96122000  1
  O  O209  1  0.60727000  0.33067000  0.07693000  1
  O  O210  1  0.36694000  0.52772000  0.14412000  1
  O  O211  1  0.33067000  0.60727000  0.98513000  1
  O  O212  1  0.96122000  0.14412000  0.52772000  1
  O  O213  1  0.07693000  0.98513000  0.60727000  1
  O  O214  1  0.14412000  0.96122000  0.36694000  1
  O  O215  1  0.98513000  0.07693000  0.33067000  1
  O  O216  1  0.36694000  0.96122000  0.14412000  1
  O  O217  1  0.33067000  0.07693000  0.98513000  1
  O  O218  1  0.52772000  0.14412000  0.96122000  1
  O  O219  1  0.60727000  0.98513000  0.07693000  1
  O  O220  1  0.14412000  0.52772000  0.36694000  1
  O  O221  1  0.98513000  0.60727000  0.33067000  1
  O  O222  1  0.96122000  0.36694000  0.52772000  1
  O  O223  1  0.07693000  0.33067000  0.60727000  1
  O  O224  1  0.96122000  0.14412000  0.36694000  1
  O  O225  1  0.07693000  0.98513000  0.33067000  1
  O  O226  1  0.14412000  0.96122000  0.52772000  1
  O  O227  1  0.98513000  0.07693000  0.60727000  1
  O  O228  1  0.52772000  0.36694000  0.14412000  1
  O  O229  1  0.60727000  0.33067000  0.98513000  1
  O  O230  1  0.36694000  0.52772000  0.96122000  1
  O  O231  1  0.33067000  0.60727000  0.07693000  1
  O  O232  1  0.14412000  0.36694000  0.96122000  1
  O  O233  1  0.98513000  0.33067000  0.07693000  1
  O  O234  1  0.96122000  0.52772000  0.14412000  1
  O  O235  1  0.07693000  0.60727000  0.98513000  1
  O  O236  1  0.36694000  0.14412000  0.52772000  1
  O  O237  1  0.33067000  0.98513000  0.60727000  1
  O  O238  1  0.52772000  0.96122000  0.36694000  1
  O  O239  1  0.60727000  0.07693000  0.33067000  1
  O  O240  1  0.47228000  0.03878000  0.85588000  1
  O  O241  1  0.39273000  0.92307000  0.01487000  1
  O  O242  1  0.63306000  0.85588000  0.03878000  1
  O  O243  1  0.66933000  0.01487000  0.92307000  1
  O  O244  1  0.03878000  0.47228000  0.63306000  1
  O  O245  1  0.92307000  0.39273000  0.66933000  1
  O  O246  1  0.85588000  0.63306000  0.47228000  1
  O  O247  1  0.01487000  0.66933000  0.39273000  1
  O  O248  1  0.47228000  0.85588000  0.63306000  1
  O  O249  1  0.39273000  0.01487000  0.66933000  1
  O  O250  1  0.63306000  0.03878000  0.47228000  1
  O  O251  1  0.66933000  0.92307000  0.39273000  1
  O  O252  1  0.03878000  0.63306000  0.85588000  1
  O  O253  1  0.92307000  0.66933000  0.01487000  1
  O  O254  1  0.85588000  0.47228000  0.03878000  1
  O  O255  1  0.01487000  0.39273000  0.92307000  1
  O  O256  1  0.47228000  0.63306000  0.03878000  1
  O  O257  1  0.39273000  0.66933000  0.92307000  1
  O  O258  1  0.63306000  0.47228000  0.85588000  1
  O  O259  1  0.66933000  0.39273000  0.01487000  1
  O  O260  1  0.03878000  0.85588000  0.47228000  1
  O  O261  1  0.92307000  0.01487000  0.39273000  1
  O  O262  1  0.85588000  0.03878000  0.63306000  1
  O  O263  1  0.01487000  0.92307000  0.66933000  1
  O  O264  1  0.58948000  0.95590000  0.95590000  1
  O  O265  1  0.49872000  0.95590000  0.95590000  1
  O  O266  1  0.95590000  0.49872000  0.58948000  1
  O  O267  1  0.95590000  0.58948000  0.49872000  1
  O  O268  1  0.95590000  0.95590000  0.58948000  1
  O  O269  1  0.95590000  0.95590000  0.49872000  1
  O  O270  1  0.49872000  0.58948000  0.95590000  1
  O  O271  1  0.58948000  0.49872000  0.95590000  1
  O  O272  1  0.95590000  0.58948000  0.95590000  1
  O  O273  1  0.95590000  0.49872000  0.95590000  1
  O  O274  1  0.58948000  0.95590000  0.49872000  1
  O  O275  1  0.49872000  0.95590000  0.58948000  1
  O  O276  1  0.50128000  0.04410000  0.04410000  1
  O  O277  1  0.41052000  0.04410000  0.04410000  1
  O  O278  1  0.04410000  0.50128000  0.41052000  1
  O  O279  1  0.04410000  0.41052000  0.50128000  1
  O  O280  1  0.50128000  0.04410000  0.41052000  1
  O  O281  1  0.41052000  0.04410000  0.50128000  1
  O  O282  1  0.04410000  0.41052000  0.04410000  1
  O  O283  1  0.04410000  0.50128000  0.04410000  1
  O  O284  1  0.50128000  0.41052000  0.04410000  1
  O  O285  1  0.41052000  0.50128000  0.04410000  1
  O  O286  1  0.04410000  0.04410000  0.50128000  1
  O  O287  1  0.04410000  0.04410000  0.41052000  1
  O  O288  1  0.45635000  0.06499000  0.93501000  1
  O  O289  1  0.54365000  0.93501000  0.06499000  1
  O  O290  1  0.93501000  0.54365000  0.45635000  1
  O  O291  1  0.06499000  0.45635000  0.54365000  1
  O  O292  1  0.06499000  0.93501000  0.45635000  1
  O  O293  1  0.93501000  0.06499000  0.54365000  1
  O  O294  1  0.54365000  0.45635000  0.93501000  1
  O  O295  1  0.45635000  0.54365000  0.06499000  1
  O  O296  1  0.93501000  0.45635000  0.06499000  1
  O  O297  1  0.06499000  0.54365000  0.93501000  1
  O  O298  1  0.45635000  0.93501000  0.54365000  1
  O  O299  1  0.54365000  0.06499000  0.45635000  1
  O  O300  1  0.45635000  0.93501000  0.06499000  1
  O  O301  1  0.54365000  0.06499000  0.93501000  1
  O  O302  1  0.93501000  0.45635000  0.54365000  1
  O  O303  1  0.06499000  0.54365000  0.45635000  1
  O  O304  1  0.45635000  0.06499000  0.54365000  1
  O  O305  1  0.54365000  0.93501000  0.45635000  1
  O  O306  1  0.93501000  0.54365000  0.06499000  1
  O  O307  1  0.06499000  0.45635000  0.93501000  1
  O  O308  1  0.45635000  0.54365000  0.93501000  1
  O  O309  1  0.54365000  0.45635000  0.06499000  1
  O  O310  1  0.93501000  0.06499000  0.45635000  1
  O  O311  1  0.06499000  0.93501000  0.54365000  1
  Zr  Zr312  1  0.54723000  0.02137000  0.88417000  1
  Zr  Zr313  1  0.54723000  0.88417000  0.02137000  1
  Zr  Zr314  1  0.88417000  0.54723000  0.54723000  1
  Zr  Zr315  1  0.02137000  0.54723000  0.54723000  1
  Zr  Zr316  1  0.02137000  0.88417000  0.54723000  1
  Zr  Zr317  1  0.88417000  0.02137000  0.54723000  1
  Zr  Zr318  1  0.54723000  0.54723000  0.88417000  1
  Zr  Zr319  1  0.54723000  0.54723000  0.02137000  1
  Zr  Zr320  1  0.88417000  0.54723000  0.02137000  1
  Zr  Zr321  1  0.02137000  0.54723000  0.88417000  1
  Zr  Zr322  1  0.54723000  0.88417000  0.54723000  1
  Zr  Zr323  1  0.54723000  0.02137000  0.54723000  1
  Zr  Zr324  1  0.45277000  0.97863000  0.11583000  1
  Zr  Zr325  1  0.45277000  0.11583000  0.97863000  1
  Zr  Zr326  1  0.97863000  0.45277000  0.45277000  1
  Zr  Zr327  1  0.11583000  0.45277000  0.45277000  1
  Zr  Zr328  1  0.45277000  0.11583000  0.45277000  1
  Zr  Zr329  1  0.45277000  0.97863000  0.45277000  1
  Zr  Zr330  1  0.97863000  0.45277000  0.11583000  1
  Zr  Zr331  1  0.11583000  0.45277000  0.97863000  1
  Zr  Zr332  1  0.45277000  0.45277000  0.97863000  1
  Zr  Zr333  1  0.45277000  0.45277000  0.11583000  1
  Zr  Zr334  1  0.97863000  0.11583000  0.45277000  1
  Zr  Zr335  1  0.11583000  0.97863000  0.45277000  1
  Zr  Zr336  1  0.59406000  1.00000000  1.00000000  1
  Zr  Zr337  1  0.40594000  0.00000000  0.00000000  1
  Zr  Zr338  1  0.00000000  0.40594000  0.59406000  1
  Zr  Zr339  1  0.00000000  0.59406000  0.40594000  1
  Zr  Zr340  1  1.00000000  0.00000000  0.59406000  1
  Zr  Zr341  1  1.00000000  0.00000000  0.40594000  1
  Zr  Zr342  1  0.40594000  0.59406000  0.00000000  1
  Zr  Zr343  1  0.59406000  0.40594000  0.00000000  1
  Zr  Zr344  1  0.00000000  0.59406000  1.00000000  1
  Zr  Zr345  1  1.00000000  0.40594000  0.00000000  1
  Zr  Zr346  1  0.59406000  0.00000000  0.40594000  1
  Zr  Zr347  1  0.40594000  0.00000000  0.59406000  1
