# generated using pymatgen
data_Zr24H116C288N4O121F96
_symmetry_space_group_name_H-M   'P 1'
_cell_length_a   15.12160000
_cell_length_b   34.32150000
_cell_length_c   34.32150000
_cell_angle_alpha   90.00000000
_cell_angle_beta   90.00000000
_cell_angle_gamma   90.00000000
_symmetry_Int_Tables_number   1
_chemical_formula_structural   Zr24H116C288N4O121F96
_chemical_formula_sum   'Zr24 H116 C288 N4 O121 F96'
_cell_volume   17812.72102180
_cell_formula_units_Z   1
loop_
 _symmetry_equiv_pos_site_id
 _symmetry_equiv_pos_as_xyz
  1  'x, y, z'
loop_
 _atom_site_type_symbol
 _atom_site_label
 _atom_site_symmetry_multiplicity
 _atom_site_fract_x
 _atom_site_fract_y
 _atom_site_fract_z
 _atom_site_occupancy
  Zr  Zr0  1  0.50000000  0.44949000  0.94949000  1
  Zr  Zr1  1  0.50000000  0.05051000  0.55051000  1
  Zr  Zr2  1  1.00000000  0.55051000  0.44949000  1
  Zr  Zr3  1  0.00000000  0.94949000  0.05051000  1
  Zr  Zr4  1  0.50000000  0.55051000  0.05051000  1
  Zr  Zr5  1  0.50000000  0.94949000  0.44949000  1
  Zr  Zr6  1  1.00000000  0.44949000  0.55051000  1
  Zr  Zr7  1  0.00000000  0.05051000  0.94949000  1
  Zr  Zr8  1  0.40124000  0.54120000  0.95880000  1
  Zr  Zr9  1  0.63242000  0.53055000  0.96945000  1
  Zr  Zr10  1  0.40124000  0.95880000  0.54120000  1
  Zr  Zr11  1  0.63242000  0.96945000  0.53055000  1
  Zr  Zr12  1  0.90124000  0.54120000  0.54120000  1
  Zr  Zr13  1  0.13242000  0.53055000  0.53055000  1
  Zr  Zr14  1  0.90124000  0.95880000  0.95880000  1
  Zr  Zr15  1  0.13242000  0.96945000  0.96945000  1
  Zr  Zr16  1  0.09876000  0.45880000  0.45880000  1
  Zr  Zr17  1  0.86758000  0.46945000  0.46945000  1
  Zr  Zr18  1  0.09876000  0.04120000  0.04120000  1
  Zr  Zr19  1  0.86758000  0.03055000  0.03055000  1
  Zr  Zr20  1  0.59876000  0.45880000  0.04120000  1
  Zr  Zr21  1  0.36758000  0.46945000  0.03055000  1
  Zr  Zr22  1  0.59876000  0.04120000  0.45880000  1
  Zr  Zr23  1  0.36758000  0.03055000  0.46945000  1
  H  H24  1  0.42450000  0.43460000  0.82690000  1
  H  H25  1  0.21740000  0.52370000  0.77780000  1
  H  H26  1  0.26790000  0.52830000  0.84260000  1
  H  H27  1  0.29860000  0.50900000  0.63520000  1
  H  H28  1  0.10710000  0.43450000  0.66880000  1
  H  H29  1  0.16060000  0.43510000  0.73270000  1
  H  H30  1  0.42450000  0.06540000  0.67310000  1
  H  H31  1  0.21740000  0.97630000  0.72220000  1
  H  H32  1  0.26790000  0.97170000  0.65740000  1
  H  H33  1  0.29860000  0.99100000  0.86480000  1
  H  H34  1  0.10710000  0.06550000  0.83120000  1
  H  H35  1  0.16060000  0.06490000  0.76730000  1
  H  H36  1  0.95660000  0.96470000  0.44490000  1
  H  H37  1  0.89690000  0.01570000  0.54840000  1
  H  H38  1  0.92450000  0.67310000  0.43460000  1
  H  H39  1  0.71740000  0.72220000  0.52370000  1
  H  H40  1  0.76790000  0.65740000  0.52830000  1
  H  H41  1  0.79860000  0.86480000  0.50900000  1
  H  H42  1  0.60710000  0.83120000  0.43450000  1
  H  H43  1  0.66060000  0.76730000  0.43510000  1
  H  H44  1  0.45660000  0.44490000  0.53530000  1
  H  H45  1  0.39690000  0.54840000  0.48430000  1
  H  H46  1  0.92450000  0.82690000  0.06540000  1
  H  H47  1  0.71740000  0.77780000  0.97630000  1
  H  H48  1  0.76790000  0.84260000  0.97170000  1
  H  H49  1  0.79860000  0.63520000  0.99100000  1
  H  H50  1  0.60710000  0.66880000  0.06550000  1
  H  H51  1  0.66060000  0.73270000  0.06490000  1
  H  H52  1  0.45660000  0.05510000  0.96470000  1
  H  H53  1  0.39690000  0.95160000  0.01570000  1
  H  H54  1  0.07550000  0.56540000  0.32690000  1
  H  H55  1  0.28260000  0.47630000  0.27780000  1
  H  H56  1  0.23210000  0.47170000  0.34260000  1
  H  H57  1  0.20140000  0.49100000  0.13520000  1
  H  H58  1  0.39290000  0.56550000  0.16880000  1
  H  H59  1  0.33940000  0.56490000  0.23270000  1
  H  H60  1  0.07550000  0.93460000  0.17310000  1
  H  H61  1  0.28260000  0.02370000  0.22220000  1
  H  H62  1  0.23210000  0.02830000  0.15740000  1
  H  H63  1  0.20140000  0.00900000  0.36480000  1
  H  H64  1  0.39290000  0.93450000  0.33120000  1
  H  H65  1  0.33940000  0.93510000  0.26730000  1
  H  H66  1  0.57550000  0.32690000  0.93460000  1
  H  H67  1  0.78260000  0.27780000  0.02370000  1
  H  H68  1  0.73210000  0.34260000  0.02830000  1
  H  H69  1  0.70140000  0.13520000  0.00900000  1
  H  H70  1  0.89290000  0.16880000  0.93450000  1
  H  H71  1  0.83940000  0.23270000  0.93510000  1
  H  H72  1  0.10310000  0.45160000  0.98430000  1
  H  H73  1  0.09100000  0.55870000  0.06380000  1
  H  H74  1  0.02890000  0.58620000  0.04210000  1
  H  H75  1  0.57550000  0.17310000  0.56540000  1
  H  H76  1  0.78260000  0.22220000  0.47630000  1
  H  H77  1  0.73210000  0.15740000  0.47170000  1
  H  H78  1  0.70140000  0.36480000  0.49100000  1
  H  H79  1  0.89290000  0.33120000  0.56550000  1
  H  H80  1  0.83940000  0.26730000  0.56490000  1
  H  H81  1  0.57550000  0.56540000  0.17310000  1
  H  H82  1  0.78260000  0.47630000  0.22220000  1
  H  H83  1  0.73210000  0.47170000  0.15740000  1
  H  H84  1  0.70140000  0.49100000  0.36480000  1
  H  H85  1  0.89290000  0.56550000  0.33120000  1
  H  H86  1  0.83940000  0.56490000  0.26730000  1
  H  H87  1  0.57550000  0.93460000  0.32690000  1
  H  H88  1  0.78260000  0.02370000  0.27780000  1
  H  H89  1  0.73210000  0.02830000  0.34260000  1
  H  H90  1  0.70140000  0.00900000  0.13520000  1
  H  H91  1  0.89290000  0.93450000  0.16880000  1
  H  H92  1  0.83940000  0.93510000  0.23270000  1
  H  H93  1  0.10310000  0.98430000  0.45160000  1
  H  H94  1  0.09100000  0.06380000  0.55870000  1
  H  H95  1  0.02890000  0.04210000  0.58620000  1
  H  H96  1  0.07550000  0.32690000  0.56540000  1
  H  H97  1  0.28260000  0.27780000  0.47630000  1
  H  H98  1  0.23210000  0.34260000  0.47170000  1
  H  H99  1  0.20140000  0.13520000  0.49100000  1
  H  H100  1  0.39290000  0.16880000  0.56550000  1
  H  H101  1  0.33940000  0.23270000  0.56490000  1
  H  H102  1  0.60310000  0.45160000  0.51570000  1
  H  H103  1  0.59100000  0.55870000  0.43620000  1
  H  H104  1  0.52890000  0.58620000  0.45790000  1
  H  H105  1  0.07550000  0.17310000  0.93460000  1
  H  H106  1  0.28260000  0.22220000  0.02370000  1
  H  H107  1  0.23210000  0.15740000  0.02830000  1
  H  H108  1  0.20140000  0.36480000  0.00900000  1
  H  H109  1  0.39290000  0.33120000  0.93450000  1
  H  H110  1  0.33940000  0.26730000  0.93510000  1
  H  H111  1  0.60310000  0.04840000  0.98430000  1
  H  H112  1  0.59100000  0.94130000  0.06380000  1
  H  H113  1  0.52890000  0.91380000  0.04210000  1
  H  H114  1  0.92450000  0.43460000  0.67310000  1
  H  H115  1  0.71740000  0.52370000  0.72220000  1
  H  H116  1  0.76790000  0.52830000  0.65740000  1
  H  H117  1  0.79860000  0.50900000  0.86480000  1
  H  H118  1  0.60710000  0.43450000  0.83120000  1
  H  H119  1  0.66060000  0.43510000  0.76730000  1
  H  H120  1  0.92450000  0.06540000  0.82690000  1
  H  H121  1  0.71740000  0.97630000  0.77780000  1
  H  H122  1  0.76790000  0.97170000  0.84260000  1
  H  H123  1  0.79860000  0.99100000  0.63520000  1
  H  H124  1  0.60710000  0.06550000  0.66880000  1
  H  H125  1  0.66060000  0.06490000  0.73270000  1
  H  H126  1  0.42450000  0.67310000  0.06540000  1
  H  H127  1  0.21740000  0.72220000  0.97630000  1
  H  H128  1  0.26790000  0.65740000  0.97170000  1
  H  H129  1  0.29860000  0.86480000  0.99100000  1
  H  H130  1  0.10710000  0.83120000  0.06550000  1
  H  H131  1  0.16060000  0.76730000  0.06490000  1
  H  H132  1  0.95660000  0.44490000  0.96470000  1
  H  H133  1  0.89690000  0.54840000  0.01570000  1
  H  H134  1  0.42450000  0.82690000  0.43460000  1
  H  H135  1  0.21740000  0.77780000  0.52370000  1
  H  H136  1  0.26790000  0.84260000  0.52830000  1
  H  H137  1  0.29860000  0.63520000  0.50900000  1
  H  H138  1  0.10710000  0.66880000  0.43450000  1
  H  H139  1  0.16060000  0.73270000  0.43510000  1
  C  C140  1  0.38100000  0.48515000  0.88188000  1
  C  C141  1  0.35010000  0.48167000  0.84066000  1
  C  C142  1  0.38260000  0.45264000  0.81681000  1
  C  C143  1  0.35490000  0.44933000  0.77826000  1
  C  C144  1  0.29300000  0.47600000  0.76366000  1
  C  C145  1  0.25950000  0.50566000  0.78758000  1
  C  C146  1  0.28950000  0.50814000  0.82619000  1
  C  C147  1  0.39420000  0.41700000  0.75510000  1
  C  C148  1  0.26310000  0.47274000  0.72196000  1
  C  C149  1  0.30460000  0.49481000  0.69297000  1
  C  C150  1  0.27070000  0.49417000  0.65502000  1
  C  C151  1  0.19670000  0.47206000  0.64622000  1
  C  C152  1  0.15710000  0.45002000  0.67508000  1
  C  C153  1  0.18880000  0.45013000  0.71311000  1
  C  C154  1  0.38500000  0.51920000  0.69960000  1
  C  C155  1  0.15720000  0.47438000  0.60664000  1
  C  C156  1  0.38100000  0.01485000  0.61812000  1
  C  C157  1  0.35010000  0.01833000  0.65934000  1
  C  C158  1  0.38260000  0.04736000  0.68319000  1
  C  C159  1  0.35490000  0.05067000  0.72174000  1
  C  C160  1  0.29300000  0.02400000  0.73634000  1
  C  C161  1  0.25950000  0.99434000  0.71242000  1
  C  C162  1  0.28950000  0.99186000  0.67381000  1
  C  C163  1  0.39420000  0.08300000  0.74490000  1
  C  C164  1  0.26310000  0.02726000  0.77804000  1
  C  C165  1  0.30460000  0.00519000  0.80703000  1
  C  C166  1  0.27070000  0.00583000  0.84498000  1
  C  C167  1  0.19670000  0.02794000  0.85378000  1
  C  C168  1  0.15710000  0.04998000  0.82492000  1
  C  C169  1  0.18880000  0.04987000  0.78689000  1
  C  C170  1  0.38500000  0.98080000  0.80040000  1
  C  C171  1  0.15720000  0.02562000  0.89336000  1
  C  C172  1  0.81600000  0.97470000  0.48850000  1
  C  C173  1  0.93870000  0.00950000  0.52868000  1
  C  C174  1  0.91150000  0.98879000  0.49580000  1
  C  C175  1  0.97330000  0.97940000  0.46715000  1
  C  C176  1  0.88100000  0.61812000  0.48515000  1
  C  C177  1  0.85010000  0.65934000  0.48167000  1
  C  C178  1  0.88260000  0.68319000  0.45264000  1
  C  C179  1  0.85490000  0.72174000  0.44933000  1
  C  C180  1  0.79300000  0.73634000  0.47600000  1
  C  C181  1  0.75950000  0.71242000  0.50566000  1
  C  C182  1  0.78950000  0.67381000  0.50814000  1
  C  C183  1  0.89420000  0.74490000  0.41700000  1
  C  C184  1  0.76310000  0.77804000  0.47274000  1
  C  C185  1  0.80460000  0.80703000  0.49481000  1
  C  C186  1  0.77070000  0.84498000  0.49417000  1
  C  C187  1  0.69670000  0.85378000  0.47206000  1
  C  C188  1  0.65710000  0.82492000  0.45002000  1
  C  C189  1  0.68880000  0.78689000  0.45013000  1
  C  C190  1  0.88500000  0.80040000  0.51920000  1
  C  C191  1  0.65720000  0.89336000  0.47438000  1
  C  C192  1  0.31600000  0.48850000  0.52530000  1
  C  C193  1  0.43870000  0.52868000  0.49050000  1
  C  C194  1  0.41150000  0.49580000  0.51121000  1
  C  C195  1  0.47330000  0.46715000  0.52060000  1
  C  C196  1  0.88100000  0.88188000  0.01485000  1
  C  C197  1  0.85010000  0.84066000  0.01833000  1
  C  C198  1  0.88260000  0.81681000  0.04736000  1
  C  C199  1  0.85490000  0.77826000  0.05067000  1
  C  C200  1  0.79300000  0.76366000  0.02400000  1
  C  C201  1  0.75950000  0.78758000  0.99434000  1
  C  C202  1  0.78950000  0.82619000  0.99186000  1
  C  C203  1  0.89420000  0.75510000  0.08300000  1
  C  C204  1  0.76310000  0.72196000  0.02726000  1
  C  C205  1  0.80460000  0.69297000  0.00519000  1
  C  C206  1  0.77070000  0.65502000  0.00583000  1
  C  C207  1  0.69670000  0.64622000  0.02794000  1
  C  C208  1  0.65710000  0.67508000  0.04998000  1
  C  C209  1  0.68880000  0.71311000  0.04987000  1
  C  C210  1  0.88500000  0.69960000  0.98080000  1
  C  C211  1  0.65720000  0.60664000  0.02562000  1
  C  C212  1  0.31600000  0.01150000  0.97470000  1
  C  C213  1  0.43870000  0.97132000  0.00950000  1
  C  C214  1  0.41150000  0.00420000  0.98879000  1
  C  C215  1  0.47330000  0.03285000  0.97940000  1
  C  C216  1  0.11900000  0.51485000  0.38188000  1
  C  C217  1  0.14990000  0.51833000  0.34066000  1
  C  C218  1  0.11740000  0.54736000  0.31681000  1
  C  C219  1  0.14510000  0.55067000  0.27826000  1
  C  C220  1  0.20700000  0.52400000  0.26366000  1
  C  C221  1  0.24050000  0.49434000  0.28758000  1
  C  C222  1  0.21050000  0.49186000  0.32619000  1
  C  C223  1  0.10580000  0.58300000  0.25510000  1
  C  C224  1  0.23690000  0.52726000  0.22196000  1
  C  C225  1  0.19540000  0.50519000  0.19297000  1
  C  C226  1  0.22930000  0.50583000  0.15502000  1
  C  C227  1  0.30330000  0.52794000  0.14622000  1
  C  C228  1  0.34290000  0.54998000  0.17508000  1
  C  C229  1  0.31120000  0.54987000  0.21311000  1
  C  C230  1  0.11500000  0.48080000  0.19960000  1
  C  C231  1  0.34280000  0.52562000  0.10664000  1
  C  C232  1  0.11900000  0.98515000  0.11812000  1
  C  C233  1  0.14990000  0.98167000  0.15934000  1
  C  C234  1  0.11740000  0.95264000  0.18319000  1
  C  C235  1  0.14510000  0.94933000  0.22174000  1
  C  C236  1  0.20700000  0.97600000  0.23634000  1
  C  C237  1  0.24050000  0.00566000  0.21242000  1
  C  C238  1  0.21050000  0.00814000  0.17381000  1
  C  C239  1  0.10580000  0.91700000  0.24490000  1
  C  C240  1  0.23690000  0.97274000  0.27804000  1
  C  C241  1  0.19540000  0.99481000  0.30703000  1
  C  C242  1  0.22930000  0.99417000  0.34498000  1
  C  C243  1  0.30330000  0.97206000  0.35378000  1
  C  C244  1  0.34290000  0.95002000  0.32492000  1
  C  C245  1  0.31120000  0.95013000  0.28689000  1
  C  C246  1  0.11500000  0.01920000  0.30040000  1
  C  C247  1  0.34280000  0.97438000  0.39336000  1
  C  C248  1  0.61900000  0.38188000  0.98515000  1
  C  C249  1  0.64990000  0.34066000  0.98167000  1
  C  C250  1  0.61740000  0.31681000  0.95264000  1
  C  C251  1  0.64510000  0.27826000  0.94933000  1
  C  C252  1  0.70700000  0.26366000  0.97600000  1
  C  C253  1  0.74050000  0.28758000  0.00566000  1
  C  C254  1  0.71050000  0.32619000  0.00814000  1
  C  C255  1  0.60580000  0.25510000  0.91700000  1
  C  C256  1  0.73690000  0.22196000  0.97274000  1
  C  C257  1  0.69540000  0.19297000  0.99481000  1
  C  C258  1  0.72930000  0.15502000  0.99417000  1
  C  C259  1  0.80330000  0.14622000  0.97206000  1
  C  C260  1  0.84290000  0.17508000  0.95002000  1
  C  C261  1  0.81120000  0.21311000  0.95013000  1
  C  C262  1  0.61500000  0.19960000  0.01920000  1
  C  C263  1  0.84280000  0.10664000  0.97438000  1
  C  C264  1  0.18400000  0.51150000  0.02530000  1
  C  C265  1  0.06130000  0.47132000  0.99050000  1
  C  C266  1  0.08850000  0.50420000  0.01121000  1
  C  C267  1  0.02670000  0.53285000  0.02060000  1
  C  C268  1  0.61900000  0.11812000  0.51485000  1
  C  C269  1  0.64990000  0.15934000  0.51833000  1
  C  C270  1  0.61740000  0.18319000  0.54736000  1
  C  C271  1  0.64510000  0.22174000  0.55067000  1
  C  C272  1  0.70700000  0.23634000  0.52400000  1
  C  C273  1  0.74050000  0.21242000  0.49434000  1
  C  C274  1  0.71050000  0.17381000  0.49186000  1
  C  C275  1  0.60580000  0.24490000  0.58300000  1
  C  C276  1  0.73690000  0.27804000  0.52726000  1
  C  C277  1  0.69540000  0.30703000  0.50519000  1
  C  C278  1  0.72930000  0.34498000  0.50583000  1
  C  C279  1  0.80330000  0.35378000  0.52794000  1
  C  C280  1  0.84290000  0.32492000  0.54998000  1
  C  C281  1  0.81120000  0.28689000  0.54987000  1
  C  C282  1  0.61500000  0.30040000  0.48080000  1
  C  C283  1  0.84280000  0.39336000  0.52562000  1
  C  C284  1  0.61900000  0.51485000  0.11812000  1
  C  C285  1  0.64990000  0.51833000  0.15934000  1
  C  C286  1  0.61740000  0.54736000  0.18319000  1
  C  C287  1  0.64510000  0.55067000  0.22174000  1
  C  C288  1  0.70700000  0.52400000  0.23634000  1
  C  C289  1  0.74050000  0.49434000  0.21242000  1
  C  C290  1  0.71050000  0.49186000  0.17381000  1
  C  C291  1  0.60580000  0.58300000  0.24490000  1
  C  C292  1  0.73690000  0.52726000  0.27804000  1
  C  C293  1  0.69540000  0.50519000  0.30703000  1
  C  C294  1  0.72930000  0.50583000  0.34498000  1
  C  C295  1  0.80330000  0.52794000  0.35378000  1
  C  C296  1  0.84290000  0.54998000  0.32492000  1
  C  C297  1  0.81120000  0.54987000  0.28689000  1
  C  C298  1  0.61500000  0.48080000  0.30040000  1
  C  C299  1  0.84280000  0.52562000  0.39336000  1
  C  C300  1  0.61900000  0.98515000  0.38188000  1
  C  C301  1  0.64990000  0.98167000  0.34066000  1
  C  C302  1  0.61740000  0.95264000  0.31681000  1
  C  C303  1  0.64510000  0.94933000  0.27826000  1
  C  C304  1  0.70700000  0.97600000  0.26366000  1
  C  C305  1  0.74050000  0.00566000  0.28758000  1
  C  C306  1  0.71050000  0.00814000  0.32619000  1
  C  C307  1  0.60580000  0.91700000  0.25510000  1
  C  C308  1  0.73690000  0.97274000  0.22196000  1
  C  C309  1  0.69540000  0.99481000  0.19297000  1
  C  C310  1  0.72930000  0.99417000  0.15502000  1
  C  C311  1  0.80330000  0.97206000  0.14622000  1
  C  C312  1  0.84290000  0.95002000  0.17508000  1
  C  C313  1  0.81120000  0.95013000  0.21311000  1
  C  C314  1  0.61500000  0.01920000  0.19960000  1
  C  C315  1  0.84280000  0.97438000  0.10664000  1
  C  C316  1  0.18400000  0.02530000  0.51150000  1
  C  C317  1  0.06130000  0.99050000  0.47132000  1
  C  C318  1  0.08850000  0.01121000  0.50420000  1
  C  C319  1  0.02670000  0.02060000  0.53285000  1
  C  C320  1  0.11900000  0.38188000  0.51485000  1
  C  C321  1  0.14990000  0.34066000  0.51833000  1
  C  C322  1  0.11740000  0.31681000  0.54736000  1
  C  C323  1  0.14510000  0.27826000  0.55067000  1
  C  C324  1  0.20700000  0.26366000  0.52400000  1
  C  C325  1  0.24050000  0.28758000  0.49434000  1
  C  C326  1  0.21050000  0.32619000  0.49186000  1
  C  C327  1  0.10580000  0.25510000  0.58300000  1
  C  C328  1  0.23690000  0.22196000  0.52726000  1
  C  C329  1  0.19540000  0.19297000  0.50519000  1
  C  C330  1  0.22930000  0.15502000  0.50583000  1
  C  C331  1  0.30330000  0.14622000  0.52794000  1
  C  C332  1  0.34290000  0.17508000  0.54998000  1
  C  C333  1  0.31120000  0.21311000  0.54987000  1
  C  C334  1  0.11500000  0.19960000  0.48080000  1
  C  C335  1  0.34280000  0.10664000  0.52562000  1
  C  C336  1  0.68400000  0.51150000  0.47470000  1
  C  C337  1  0.56130000  0.47132000  0.50950000  1
  C  C338  1  0.58850000  0.50420000  0.48879000  1
  C  C339  1  0.52670000  0.53285000  0.47940000  1
  C  C340  1  0.11900000  0.11812000  0.98515000  1
  C  C341  1  0.14990000  0.15934000  0.98167000  1
  C  C342  1  0.11740000  0.18319000  0.95264000  1
  C  C343  1  0.14510000  0.22174000  0.94933000  1
  C  C344  1  0.20700000  0.23634000  0.97600000  1
  C  C345  1  0.24050000  0.21242000  0.00566000  1
  C  C346  1  0.21050000  0.17381000  0.00814000  1
  C  C347  1  0.10580000  0.24490000  0.91700000  1
  C  C348  1  0.23690000  0.27804000  0.97274000  1
  C  C349  1  0.19540000  0.30703000  0.99481000  1
  C  C350  1  0.22930000  0.34498000  0.99417000  1
  C  C351  1  0.30330000  0.35378000  0.97206000  1
  C  C352  1  0.34290000  0.32492000  0.95002000  1
  C  C353  1  0.31120000  0.28689000  0.95013000  1
  C  C354  1  0.11500000  0.30040000  0.01920000  1
  C  C355  1  0.34280000  0.39336000  0.97438000  1
  C  C356  1  0.68400000  0.98850000  0.02530000  1
  C  C357  1  0.56130000  0.02868000  0.99050000  1
  C  C358  1  0.58850000  0.99580000  0.01121000  1
  C  C359  1  0.52670000  0.96715000  0.02060000  1
  C  C360  1  0.88100000  0.48515000  0.61812000  1
  C  C361  1  0.85010000  0.48167000  0.65934000  1
  C  C362  1  0.88260000  0.45264000  0.68319000  1
  C  C363  1  0.85490000  0.44933000  0.72174000  1
  C  C364  1  0.79300000  0.47600000  0.73634000  1
  C  C365  1  0.75950000  0.50566000  0.71242000  1
  C  C366  1  0.78950000  0.50814000  0.67381000  1
  C  C367  1  0.89420000  0.41700000  0.74490000  1
  C  C368  1  0.76310000  0.47274000  0.77804000  1
  C  C369  1  0.80460000  0.49481000  0.80703000  1
  C  C370  1  0.77070000  0.49417000  0.84498000  1
  C  C371  1  0.69670000  0.47206000  0.85378000  1
  C  C372  1  0.65710000  0.45002000  0.82492000  1
  C  C373  1  0.68880000  0.45013000  0.78689000  1
  C  C374  1  0.88500000  0.51920000  0.80040000  1
  C  C375  1  0.65720000  0.47438000  0.89336000  1
  C  C376  1  0.88100000  0.01485000  0.88188000  1
  C  C377  1  0.85010000  0.01833000  0.84066000  1
  C  C378  1  0.88260000  0.04736000  0.81681000  1
  C  C379  1  0.85490000  0.05067000  0.77826000  1
  C  C380  1  0.79300000  0.02400000  0.76366000  1
  C  C381  1  0.75950000  0.99434000  0.78758000  1
  C  C382  1  0.78950000  0.99186000  0.82619000  1
  C  C383  1  0.89420000  0.08300000  0.75510000  1
  C  C384  1  0.76310000  0.02726000  0.72196000  1
  C  C385  1  0.80460000  0.00519000  0.69297000  1
  C  C386  1  0.77070000  0.00583000  0.65502000  1
  C  C387  1  0.69670000  0.02794000  0.64622000  1
  C  C388  1  0.65710000  0.04998000  0.67508000  1
  C  C389  1  0.68880000  0.04987000  0.71311000  1
  C  C390  1  0.88500000  0.98080000  0.69960000  1
  C  C391  1  0.65720000  0.02562000  0.60664000  1
  C  C392  1  0.38100000  0.61812000  0.01485000  1
  C  C393  1  0.35010000  0.65934000  0.01833000  1
  C  C394  1  0.38260000  0.68319000  0.04736000  1
  C  C395  1  0.35490000  0.72174000  0.05067000  1
  C  C396  1  0.29300000  0.73634000  0.02400000  1
  C  C397  1  0.25950000  0.71242000  0.99434000  1
  C  C398  1  0.28950000  0.67381000  0.99186000  1
  C  C399  1  0.39420000  0.74490000  0.08300000  1
  C  C400  1  0.26310000  0.77804000  0.02726000  1
  C  C401  1  0.30460000  0.80703000  0.00519000  1
  C  C402  1  0.27070000  0.84498000  0.00583000  1
  C  C403  1  0.19670000  0.85378000  0.02794000  1
  C  C404  1  0.15710000  0.82492000  0.04998000  1
  C  C405  1  0.18880000  0.78689000  0.04987000  1
  C  C406  1  0.38500000  0.80040000  0.98080000  1
  C  C407  1  0.15720000  0.89336000  0.02562000  1
  C  C408  1  0.81600000  0.48850000  0.97470000  1
  C  C409  1  0.93870000  0.52868000  0.00950000  1
  C  C410  1  0.91150000  0.49580000  0.98879000  1
  C  C411  1  0.97330000  0.46715000  0.97940000  1
  C  C412  1  0.38100000  0.88188000  0.48515000  1
  C  C413  1  0.35010000  0.84066000  0.48167000  1
  C  C414  1  0.38260000  0.81681000  0.45264000  1
  C  C415  1  0.35490000  0.77826000  0.44933000  1
  C  C416  1  0.29300000  0.76366000  0.47600000  1
  C  C417  1  0.25950000  0.78758000  0.50566000  1
  C  C418  1  0.28950000  0.82619000  0.50814000  1
  C  C419  1  0.39420000  0.75510000  0.41700000  1
  C  C420  1  0.26310000  0.72196000  0.47274000  1
  C  C421  1  0.30460000  0.69297000  0.49481000  1
  C  C422  1  0.27070000  0.65502000  0.49417000  1
  C  C423  1  0.19670000  0.64622000  0.47206000  1
  C  C424  1  0.15710000  0.67508000  0.45002000  1
  C  C425  1  0.18880000  0.71311000  0.45013000  1
  C  C426  1  0.38500000  0.69960000  0.51920000  1
  C  C427  1  0.15720000  0.60664000  0.47438000  1
  N  N428  1  0.05190000  0.56290000  0.04520000  1
  N  N429  1  0.05190000  0.04520000  0.56290000  1
  N  N430  1  0.55190000  0.56290000  0.45480000  1
  N  N431  1  0.55190000  0.93710000  0.04520000  1
  O  O432  1  0.42620000  0.45679000  0.89493000  1
  O  O433  1  0.36150000  0.51575000  0.90011000  1
  O  O434  1  0.18360000  0.50180000  0.58519000  1
  O  O435  1  0.09910000  0.44946000  0.59796000  1
  O  O436  1  0.38640000  0.48199000  0.96950000  1
  O  O437  1  0.51656000  0.51079000  0.93852000  1
  O  O438  1  0.42620000  0.04321000  0.60507000  1
  O  O439  1  0.36150000  0.98425000  0.59989000  1
  O  O440  1  0.18360000  0.99820000  0.91481000  1
  O  O441  1  0.09910000  0.05054000  0.90204000  1
  O  O442  1  0.38640000  0.01801000  0.53050000  1
  O  O443  1  0.51656000  0.98921000  0.56148000  1
  O  O444  1  0.79030000  0.95550000  0.45808000  1
  O  O445  1  0.92620000  0.60507000  0.45679000  1
  O  O446  1  0.86150000  0.59989000  0.51575000  1
  O  O447  1  0.68360000  0.91481000  0.50180000  1
  O  O448  1  0.59910000  0.90204000  0.44946000  1
  O  O449  1  0.88640000  0.53050000  0.48199000  1
  O  O450  1  0.01656000  0.56148000  0.51079000  1
  O  O451  1  0.29030000  0.45808000  0.54450000  1
  O  O452  1  0.92620000  0.89493000  0.04321000  1
  O  O453  1  0.86150000  0.90011000  0.98425000  1
  O  O454  1  0.68360000  0.58519000  0.99820000  1
  O  O455  1  0.59910000  0.59796000  0.05054000  1
  O  O456  1  0.88640000  0.96950000  0.01801000  1
  O  O457  1  0.01656000  0.93852000  0.98921000  1
  O  O458  1  0.29030000  0.04192000  0.95550000  1
  O  O459  1  0.07380000  0.54321000  0.39493000  1
  O  O460  1  0.13850000  0.48425000  0.40011000  1
  O  O461  1  0.31640000  0.49820000  0.08519000  1
  O  O462  1  0.40090000  0.55054000  0.09796000  1
  O  O463  1  0.11360000  0.51801000  0.46950000  1
  O  O464  1  0.98344000  0.48921000  0.43852000  1
  O  O465  1  0.07380000  0.95679000  0.10507000  1
  O  O466  1  0.13850000  0.01575000  0.09989000  1
  O  O467  1  0.31640000  0.00180000  0.41481000  1
  O  O468  1  0.40090000  0.94946000  0.40204000  1
  O  O469  1  0.11360000  0.98199000  0.03050000  1
  O  O470  1  0.98344000  0.01079000  0.06148000  1
  O  O471  1  0.57380000  0.39493000  0.95679000  1
  O  O472  1  0.63850000  0.40011000  0.01575000  1
  O  O473  1  0.81640000  0.08519000  0.00180000  1
  O  O474  1  0.90090000  0.09796000  0.94946000  1
  O  O475  1  0.61360000  0.46950000  0.98199000  1
  O  O476  1  0.48344000  0.43852000  0.01079000  1
  O  O477  1  0.20970000  0.54192000  0.04450000  1
  O  O478  1  0.57380000  0.10507000  0.54321000  1
  O  O479  1  0.63850000  0.09989000  0.48425000  1
  O  O480  1  0.81640000  0.41481000  0.49820000  1
  O  O481  1  0.90090000  0.40204000  0.55054000  1
  O  O482  1  0.61360000  0.03050000  0.51801000  1
  O  O483  1  0.48344000  0.06148000  0.48921000  1
  O  O484  1  0.57380000  0.54321000  0.10507000  1
  O  O485  1  0.63850000  0.48425000  0.09989000  1
  O  O486  1  0.81640000  0.49820000  0.41481000  1
  O  O487  1  0.90090000  0.55054000  0.40204000  1
  O  O488  1  0.61360000  0.51801000  0.03050000  1
  O  O489  1  0.48344000  0.48921000  0.06148000  1
  O  O490  1  0.57380000  0.95679000  0.39493000  1
  O  O491  1  0.63850000  0.01575000  0.40011000  1
  O  O492  1  0.81640000  0.00180000  0.08519000  1
  O  O493  1  0.90090000  0.94946000  0.09796000  1
  O  O494  1  0.61360000  0.98199000  0.46950000  1
  O  O495  1  0.48344000  0.01079000  0.43852000  1
  O  O496  1  0.20970000  0.04450000  0.54192000  1
  O  O497  1  0.07380000  0.39493000  0.54321000  1
  O  O498  1  0.13850000  0.40011000  0.48425000  1
  O  O499  1  0.31640000  0.08519000  0.49820000  1
  O  O500  1  0.40090000  0.09796000  0.55054000  1
  O  O501  1  0.11360000  0.46950000  0.51801000  1
  O  O502  1  0.98344000  0.43852000  0.48921000  1
  O  O503  1  0.70970000  0.54192000  0.45550000  1
  O  O504  1  0.07380000  0.10507000  0.95679000  1
  O  O505  1  0.13850000  0.09989000  0.01575000  1
  O  O506  1  0.31640000  0.41481000  0.00180000  1
  O  O507  1  0.40090000  0.40204000  0.94946000  1
  O  O508  1  0.11360000  0.03050000  0.98199000  1
  O  O509  1  0.98344000  0.06148000  0.01079000  1
  O  O510  1  0.70970000  0.95808000  0.04450000  1
  O  O511  1  0.92620000  0.45679000  0.60507000  1
  O  O512  1  0.86150000  0.51575000  0.59989000  1
  O  O513  1  0.68360000  0.50180000  0.91481000  1
  O  O514  1  0.59910000  0.44946000  0.90204000  1
  O  O515  1  0.88640000  0.48199000  0.53050000  1
  O  O516  1  0.01656000  0.51079000  0.56148000  1
  O  O517  1  0.92620000  0.04321000  0.89493000  1
  O  O518  1  0.86150000  0.98425000  0.90011000  1
  O  O519  1  0.68360000  0.99820000  0.58519000  1
  O  O520  1  0.59910000  0.05054000  0.59796000  1
  O  O521  1  0.88640000  0.01801000  0.96950000  1
  O  O522  1  0.01656000  0.98921000  0.93852000  1
  O  O523  1  0.42620000  0.60507000  0.04321000  1
  O  O524  1  0.36150000  0.59989000  0.98425000  1
  O  O525  1  0.18360000  0.91481000  0.99820000  1
  O  O526  1  0.09910000  0.90204000  0.05054000  1
  O  O527  1  0.38640000  0.53050000  0.01801000  1
  O  O528  1  0.51656000  0.56148000  0.98921000  1
  O  O529  1  0.79030000  0.45808000  0.95550000  1
  O  O530  1  0.42620000  0.89493000  0.45679000  1
  O  O531  1  0.36150000  0.90011000  0.51575000  1
  O  O532  1  0.18360000  0.58519000  0.50180000  1
  O  O533  1  0.09910000  0.59796000  0.44946000  1
  O  O534  1  0.38640000  0.96950000  0.48199000  1
  O  O535  1  0.51656000  0.93852000  0.51079000  1
  O  O536  1  0.79030000  0.04192000  0.54450000  1
  O  O537  1  0.77050000  0.51517000  0.98483000  1
  O  O538  1  0.25734000  0.54532000  0.95468000  1
  O  O539  1  0.77050000  0.98483000  0.51517000  1
  O  O540  1  0.25734000  0.95468000  0.54532000  1
  O  O541  1  0.27050000  0.51517000  0.51517000  1
  O  O542  1  0.75734000  0.54532000  0.54532000  1
  O  O543  1  0.27050000  0.98483000  0.98483000  1
  O  O544  1  0.75734000  0.95468000  0.95468000  1
  O  O545  1  0.72950000  0.48483000  0.48483000  1
  O  O546  1  0.24266000  0.45468000  0.45468000  1
  O  O547  1  0.72950000  0.01517000  0.01517000  1
  O  O548  1  0.24266000  0.04532000  0.04532000  1
  O  O549  1  0.22950000  0.48483000  0.01517000  1
  O  O550  1  0.74266000  0.45468000  0.04532000  1
  O  O551  1  0.22950000  0.01517000  0.48483000  1
  O  O552  1  0.74266000  0.04532000  0.45468000  1
  F  F553  1  0.43040000  0.42770000  0.72190000  1
  F  F554  1  0.33800000  0.39010000  0.74370000  1
  F  F555  1  0.45890000  0.39720000  0.77230000  1
  F  F556  1  0.45210000  0.49910000  0.71550000  1
  F  F557  1  0.37490000  0.54900000  0.72230000  1
  F  F558  1  0.42290000  0.53290000  0.66700000  1
  F  F559  1  0.43040000  0.07230000  0.77810000  1
  F  F560  1  0.33800000  0.10990000  0.75630000  1
  F  F561  1  0.45890000  0.10280000  0.72770000  1
  F  F562  1  0.45210000  0.00090000  0.78450000  1
  F  F563  1  0.37490000  0.95100000  0.77770000  1
  F  F564  1  0.42290000  0.96710000  0.83300000  1
  F  F565  1  0.93040000  0.77810000  0.42770000  1
  F  F566  1  0.83800000  0.75630000  0.39010000  1
  F  F567  1  0.95890000  0.72770000  0.39720000  1
  F  F568  1  0.95210000  0.78450000  0.49910000  1
  F  F569  1  0.87490000  0.77770000  0.54900000  1
  F  F570  1  0.92290000  0.83300000  0.53290000  1
  F  F571  1  0.93040000  0.72190000  0.07230000  1
  F  F572  1  0.83800000  0.74370000  0.10990000  1
  F  F573  1  0.95890000  0.77230000  0.10280000  1
  F  F574  1  0.95210000  0.71550000  0.00090000  1
  F  F575  1  0.87490000  0.72230000  0.95100000  1
  F  F576  1  0.92290000  0.66700000  0.96710000  1
  F  F577  1  0.06960000  0.57230000  0.22190000  1
  F  F578  1  0.16200000  0.60990000  0.24370000  1
  F  F579  1  0.04110000  0.60280000  0.27230000  1
  F  F580  1  0.04790000  0.50090000  0.21550000  1
  F  F581  1  0.12510000  0.45100000  0.22230000  1
  F  F582  1  0.07710000  0.46710000  0.16700000  1
  F  F583  1  0.06960000  0.92770000  0.27810000  1
  F  F584  1  0.16200000  0.89010000  0.25630000  1
  F  F585  1  0.04110000  0.89720000  0.22770000  1
  F  F586  1  0.04790000  0.99910000  0.28450000  1
  F  F587  1  0.12510000  0.04900000  0.27770000  1
  F  F588  1  0.07710000  0.03290000  0.33300000  1
  F  F589  1  0.56960000  0.22190000  0.92770000  1
  F  F590  1  0.66200000  0.24370000  0.89010000  1
  F  F591  1  0.54110000  0.27230000  0.89720000  1
  F  F592  1  0.54790000  0.21550000  0.99910000  1
  F  F593  1  0.62510000  0.22230000  0.04900000  1
  F  F594  1  0.57710000  0.16700000  0.03290000  1
  F  F595  1  0.56960000  0.27810000  0.57230000  1
  F  F596  1  0.66200000  0.25630000  0.60990000  1
  F  F597  1  0.54110000  0.22770000  0.60280000  1
  F  F598  1  0.54790000  0.28450000  0.50090000  1
  F  F599  1  0.62510000  0.27770000  0.45100000  1
  F  F600  1  0.57710000  0.33300000  0.46710000  1
  F  F601  1  0.56960000  0.57230000  0.27810000  1
  F  F602  1  0.66200000  0.60990000  0.25630000  1
  F  F603  1  0.54110000  0.60280000  0.22770000  1
  F  F604  1  0.54790000  0.50090000  0.28450000  1
  F  F605  1  0.62510000  0.45100000  0.27770000  1
  F  F606  1  0.57710000  0.46710000  0.33300000  1
  F  F607  1  0.56960000  0.92770000  0.22190000  1
  F  F608  1  0.66200000  0.89010000  0.24370000  1
  F  F609  1  0.54110000  0.89720000  0.27230000  1
  F  F610  1  0.54790000  0.99910000  0.21550000  1
  F  F611  1  0.62510000  0.04900000  0.22230000  1
  F  F612  1  0.57710000  0.03290000  0.16700000  1
  F  F613  1  0.06960000  0.22190000  0.57230000  1
  F  F614  1  0.16200000  0.24370000  0.60990000  1
  F  F615  1  0.04110000  0.27230000  0.60280000  1
  F  F616  1  0.04790000  0.21550000  0.50090000  1
  F  F617  1  0.12510000  0.22230000  0.45100000  1
  F  F618  1  0.07710000  0.16700000  0.46710000  1
  F  F619  1  0.06960000  0.27810000  0.92770000  1
  F  F620  1  0.16200000  0.25630000  0.89010000  1
  F  F621  1  0.04110000  0.22770000  0.89720000  1
  F  F622  1  0.04790000  0.28450000  0.99910000  1
  F  F623  1  0.12510000  0.27770000  0.04900000  1
  F  F624  1  0.07710000  0.33300000  0.03290000  1
  F  F625  1  0.93040000  0.42770000  0.77810000  1
  F  F626  1  0.83800000  0.39010000  0.75630000  1
  F  F627  1  0.95890000  0.39720000  0.72770000  1
  F  F628  1  0.95210000  0.49910000  0.78450000  1
  F  F629  1  0.87490000  0.54900000  0.77770000  1
  F  F630  1  0.92290000  0.53290000  0.83300000  1
  F  F631  1  0.93040000  0.07230000  0.72190000  1
  F  F632  1  0.83800000  0.10990000  0.74370000  1
  F  F633  1  0.95890000  0.10280000  0.77230000  1
  F  F634  1  0.95210000  0.00090000  0.71550000  1
  F  F635  1  0.87490000  0.95100000  0.72230000  1
  F  F636  1  0.92290000  0.96710000  0.66700000  1
  F  F637  1  0.43040000  0.77810000  0.07230000  1
  F  F638  1  0.33800000  0.75630000  0.10990000  1
  F  F639  1  0.45890000  0.72770000  0.10280000  1
  F  F640  1  0.45210000  0.78450000  0.00090000  1
  F  F641  1  0.37490000  0.77770000  0.95100000  1
  F  F642  1  0.42290000  0.83300000  0.96710000  1
  F  F643  1  0.43040000  0.72190000  0.42770000  1
  F  F644  1  0.33800000  0.74370000  0.39010000  1
  F  F645  1  0.45890000  0.77230000  0.39720000  1
  F  F646  1  0.45210000  0.71550000  0.49910000  1
  F  F647  1  0.37490000  0.72230000  0.54900000  1
  F  F648  1  0.42290000  0.66700000  0.53290000  1
