# generated using pymatgen
data_Zr12Cu4H77C208I8N12(O2F3)32
_symmetry_space_group_name_H-M   'P 1'
_cell_length_a   18.73800000
_cell_length_b   23.09030000
_cell_length_c   23.09030000
_cell_angle_alpha   90.00000000
_cell_angle_beta   90.00000000
_cell_angle_gamma   90.00000000
_symmetry_Int_Tables_number   1
_chemical_formula_structural   Zr12Cu4H77C208I8N12(O2F3)32
_chemical_formula_sum   'Zr12 Cu4 H77 C208 I8 N12 O64 F96'
_cell_volume   9990.38869574
_cell_formula_units_Z   1
loop_
 _symmetry_equiv_pos_site_id
 _symmetry_equiv_pos_as_xyz
  1  'x, y, z'
loop_
 _atom_site_type_symbol
 _atom_site_label
 _atom_site_symmetry_multiplicity
 _atom_site_fract_x
 _atom_site_fract_y
 _atom_site_fract_z
 _atom_site_occupancy
  Zr  Zr0  1  0.09312000  0.50000000  0.07539000  1
  Zr  Zr1  1  0.09312000  0.50000000  0.92461000  1
  Zr  Zr2  1  0.59312000  0.92461000  0.50000000  1
  Zr  Zr3  1  0.59312000  0.07539000  0.50000000  1
  Zr  Zr4  1  0.90688000  0.50000000  0.07539000  1
  Zr  Zr5  1  0.90688000  0.50000000  0.92461000  1
  Zr  Zr6  1  0.40688000  0.07539000  0.50000000  1
  Zr  Zr7  1  0.40688000  0.92461000  0.50000000  1
  Zr  Zr8  1  0.00000000  0.39251000  0.00000000  1
  Zr  Zr9  1  1.00000000  0.60749000  0.00000000  1
  Zr  Zr10  1  0.50000000  0.00000000  0.39251000  1
  Zr  Zr11  1  0.50000000  0.00000000  0.60749000  1
  Cu  Cu12  1  0.50000000  0.50000000  0.10300000  1
  Cu  Cu13  1  0.50000000  0.50000000  0.89700000  1
  Cu  Cu14  1  1.00000000  0.89700000  0.50000000  1
  Cu  Cu15  1  0.00000000  0.10300000  0.50000000  1
  H  H16  1  0.02412000  0.38440000  0.45210000  1
  H  H17  1  0.99772000  0.41360000  0.39690000  1
  H  H18  1  0.09930000  0.24830000  0.10520000  1
  H  H19  1  0.22150000  0.37730000  0.17130000  1
  H  H20  1  0.02412000  0.61560000  0.54790000  1
  H  H21  1  0.99772000  0.58640000  0.60310000  1
  H  H22  1  0.09930000  0.75170000  0.89480000  1
  H  H23  1  0.22150000  0.62270000  0.82870000  1
  H  H24  1  0.59930000  0.89480000  0.24830000  1
  H  H25  1  0.72150000  0.82870000  0.37730000  1
  H  H26  1  0.59930000  0.10520000  0.75170000  1
  H  H27  1  0.72150000  0.17130000  0.62270000  1
  H  H28  1  0.97588000  0.61560000  0.45210000  1
  H  H29  1  0.90070000  0.75170000  0.10520000  1
  H  H30  1  0.77850000  0.62270000  0.17130000  1
  H  H31  1  0.97588000  0.38440000  0.54790000  1
  H  H32  1  0.90070000  0.24830000  0.89480000  1
  H  H33  1  0.77850000  0.37730000  0.82870000  1
  H  H34  1  0.47588000  0.45210000  0.38440000  1
  H  H35  1  0.50228000  0.39690000  0.41360000  1
  H  H36  1  0.40070000  0.10520000  0.24830000  1
  H  H37  1  0.27850000  0.17130000  0.37730000  1
  H  H38  1  0.47588000  0.54790000  0.61560000  1
  H  H39  1  0.50228000  0.60310000  0.58640000  1
  H  H40  1  0.40070000  0.89480000  0.75170000  1
  H  H41  1  0.27850000  0.82870000  0.62270000  1
  H  H42  1  0.34130000  0.83590000  0.81900000  1
  H  H43  1  0.97588000  0.61560000  0.54790000  1
  H  H44  1  0.90070000  0.75170000  0.89480000  1
  H  H45  1  0.77850000  0.62270000  0.82870000  1
  H  H46  1  0.97588000  0.38440000  0.45210000  1
  H  H47  1  0.90070000  0.24830000  0.10520000  1
  H  H48  1  0.77850000  0.37730000  0.17130000  1
  H  H49  1  0.47588000  0.45210000  0.61560000  1
  H  H50  1  0.50228000  0.39690000  0.58640000  1
  H  H51  1  0.40070000  0.10520000  0.75170000  1
  H  H52  1  0.27850000  0.17130000  0.62270000  1
  H  H53  1  0.47588000  0.54790000  0.38440000  1
  H  H54  1  0.50228000  0.60310000  0.41360000  1
  H  H55  1  0.40070000  0.89480000  0.24830000  1
  H  H56  1  0.27850000  0.82870000  0.37730000  1
  H  H57  1  0.02412000  0.38440000  0.54790000  1
  H  H58  1  0.99772000  0.41360000  0.60310000  1
  H  H59  1  0.09930000  0.24830000  0.89480000  1
  H  H60  1  0.22150000  0.37730000  0.82870000  1
  H  H61  1  0.02412000  0.61560000  0.45210000  1
  H  H62  1  0.99772000  0.58640000  0.39690000  1
  H  H63  1  0.09930000  0.75170000  0.10520000  1
  H  H64  1  0.22150000  0.62270000  0.17130000  1
  H  H65  1  0.59930000  0.89480000  0.75170000  1
  H  H66  1  0.72150000  0.82870000  0.62270000  1
  H  H67  1  0.59930000  0.10520000  0.24830000  1
  H  H68  1  0.72150000  0.17130000  0.37730000  1
  H  H69  1  0.10820000  0.50000000  0.26390000  1
  H  H70  1  0.10830000  0.50000000  0.36550000  1
  H  H71  1  0.32370000  0.50000000  0.08790000  1
  H  H72  1  0.10820000  0.50000000  0.73610000  1
  H  H73  1  0.10830000  0.50000000  0.63450000  1
  H  H74  1  0.32370000  0.50000000  0.91210000  1
  H  H75  1  0.60820000  0.73610000  0.50000000  1
  H  H76  1  0.60830000  0.63450000  0.50000000  1
  H  H77  1  0.82370000  0.91210000  0.50000000  1
  H  H78  1  0.60820000  0.26390000  0.50000000  1
  H  H79  1  0.60830000  0.36550000  0.50000000  1
  H  H80  1  0.82370000  0.08790000  0.50000000  1
  H  H81  1  0.89180000  0.50000000  0.26390000  1
  H  H82  1  0.89170000  0.50000000  0.36550000  1
  H  H83  1  0.67630000  0.50000000  0.08790000  1
  H  H84  1  0.89180000  0.50000000  0.73610000  1
  H  H85  1  0.89170000  0.50000000  0.63450000  1
  H  H86  1  0.67630000  0.50000000  0.91210000  1
  H  H87  1  0.39180000  0.26390000  0.50000000  1
  H  H88  1  0.39170000  0.36550000  0.50000000  1
  H  H89  1  0.17630000  0.08790000  0.50000000  1
  H  H90  1  0.39180000  0.73610000  0.50000000  1
  H  H91  1  0.39170000  0.63450000  0.50000000  1
  H  H92  1  0.17630000  0.91210000  0.50000000  1
  C  C93  1  0.22560000  0.23930000  0.20270000  1
  C  C94  1  0.17150000  0.22080000  0.16550000  1
  C  C95  1  0.13620000  0.26080000  0.13050000  1
  C  C96  1  0.15490000  0.31910000  0.13260000  1
  C  C97  1  0.20880000  0.33750000  0.16960000  1
  C  C98  1  0.24420000  0.29730000  0.20420000  1
  C  C99  1  0.11810000  0.36350000  0.09570000  1
  C  C100  1  0.15000000  0.15810000  0.16260000  1
  C  C101  1  0.30180000  0.31900000  0.24440000  1
  C  C102  1  0.22560000  0.76070000  0.79730000  1
  C  C103  1  0.17150000  0.77920000  0.83450000  1
  C  C104  1  0.13620000  0.73920000  0.86950000  1
  C  C105  1  0.15490000  0.68090000  0.86740000  1
  C  C106  1  0.20880000  0.66250000  0.83040000  1
  C  C107  1  0.24420000  0.70270000  0.79580000  1
  C  C108  1  0.11810000  0.63650000  0.90430000  1
  C  C109  1  0.15000000  0.84190000  0.83740000  1
  C  C110  1  0.30180000  0.68100000  0.75560000  1
  C  C111  1  0.72560000  0.79730000  0.23930000  1
  C  C112  1  0.67150000  0.83450000  0.22080000  1
  C  C113  1  0.63620000  0.86950000  0.26080000  1
  C  C114  1  0.65490000  0.86740000  0.31910000  1
  C  C115  1  0.70880000  0.83040000  0.33750000  1
  C  C116  1  0.74420000  0.79580000  0.29730000  1
  C  C117  1  0.61810000  0.90430000  0.36350000  1
  C  C118  1  0.65000000  0.83740000  0.15810000  1
  C  C119  1  0.80180000  0.75560000  0.31900000  1
  C  C120  1  0.72560000  0.20270000  0.76070000  1
  C  C121  1  0.67150000  0.16550000  0.77920000  1
  C  C122  1  0.63620000  0.13050000  0.73920000  1
  C  C123  1  0.65490000  0.13260000  0.68090000  1
  C  C124  1  0.70880000  0.16960000  0.66250000  1
  C  C125  1  0.74420000  0.20420000  0.70270000  1
  C  C126  1  0.61810000  0.09570000  0.63650000  1
  C  C127  1  0.65000000  0.16260000  0.84190000  1
  C  C128  1  0.80180000  0.24440000  0.68100000  1
  C  C129  1  0.77440000  0.76070000  0.20270000  1
  C  C130  1  0.82850000  0.77920000  0.16550000  1
  C  C131  1  0.86380000  0.73920000  0.13050000  1
  C  C132  1  0.84510000  0.68090000  0.13260000  1
  C  C133  1  0.79120000  0.66250000  0.16960000  1
  C  C134  1  0.75580000  0.70270000  0.20420000  1
  C  C135  1  0.88190000  0.63650000  0.09570000  1
  C  C136  1  0.85000000  0.84190000  0.16260000  1
  C  C137  1  0.00112000  0.54440000  0.47053000  1
  C  C138  1  0.69820000  0.68100000  0.24440000  1
  C  C139  1  0.77440000  0.23930000  0.79730000  1
  C  C140  1  0.82850000  0.22080000  0.83450000  1
  C  C141  1  0.86380000  0.26080000  0.86950000  1
  C  C142  1  0.84510000  0.31910000  0.86740000  1
  C  C143  1  0.79120000  0.33750000  0.83040000  1
  C  C144  1  0.75580000  0.29730000  0.79580000  1
  C  C145  1  0.88190000  0.36350000  0.90430000  1
  C  C146  1  0.85000000  0.15810000  0.83740000  1
  C  C147  1  0.69820000  0.31900000  0.75560000  1
  C  C148  1  0.27440000  0.20270000  0.23930000  1
  C  C149  1  0.32850000  0.16550000  0.22080000  1
  C  C150  1  0.36380000  0.13050000  0.26080000  1
  C  C151  1  0.34510000  0.13260000  0.31910000  1
  C  C152  1  0.29120000  0.16960000  0.33750000  1
  C  C153  1  0.25580000  0.20420000  0.29730000  1
  C  C154  1  0.38190000  0.09570000  0.36350000  1
  C  C155  1  0.35000000  0.16260000  0.15810000  1
  C  C156  1  0.50112000  0.47053000  0.45560000  1
  C  C157  1  0.19820000  0.24440000  0.31900000  1
  C  C158  1  0.27440000  0.79730000  0.76070000  1
  C  C159  1  0.32850000  0.83450000  0.77920000  1
  C  C160  1  0.36380000  0.86950000  0.73920000  1
  C  C161  1  0.34510000  0.86740000  0.68090000  1
  C  C162  1  0.29120000  0.83040000  0.66250000  1
  C  C163  1  0.25580000  0.79580000  0.70270000  1
  C  C164  1  0.38190000  0.90430000  0.63650000  1
  C  C165  1  0.35000000  0.83740000  0.84190000  1
  C  C166  1  0.50112000  0.52947000  0.54440000  1
  C  C167  1  0.19820000  0.75560000  0.68100000  1
  C  C168  1  0.77440000  0.76070000  0.79730000  1
  C  C169  1  0.82850000  0.77920000  0.83450000  1
  C  C170  1  0.86380000  0.73920000  0.86950000  1
  C  C171  1  0.84510000  0.68090000  0.86740000  1
  C  C172  1  0.79120000  0.66250000  0.83040000  1
  C  C173  1  0.75580000  0.70270000  0.79580000  1
  C  C174  1  0.88190000  0.63650000  0.90430000  1
  C  C175  1  0.85000000  0.84190000  0.83740000  1
  C  C176  1  0.00112000  0.54440000  0.52947000  1
  C  C177  1  0.69820000  0.68100000  0.75560000  1
  C  C178  1  0.77440000  0.23930000  0.20270000  1
  C  C179  1  0.82850000  0.22080000  0.16550000  1
  C  C180  1  0.86380000  0.26080000  0.13050000  1
  C  C181  1  0.84510000  0.31910000  0.13260000  1
  C  C182  1  0.79120000  0.33750000  0.16960000  1
  C  C183  1  0.75580000  0.29730000  0.20420000  1
  C  C184  1  0.88190000  0.36350000  0.09570000  1
  C  C185  1  0.85000000  0.15810000  0.16260000  1
  C  C186  1  0.00112000  0.45560000  0.47053000  1
  C  C187  1  0.69820000  0.31900000  0.24440000  1
  C  C188  1  0.27440000  0.20270000  0.76070000  1
  C  C189  1  0.32850000  0.16550000  0.77920000  1
  C  C190  1  0.36380000  0.13050000  0.73920000  1
  C  C191  1  0.34510000  0.13260000  0.68090000  1
  C  C192  1  0.29120000  0.16960000  0.66250000  1
  C  C193  1  0.25580000  0.20420000  0.70270000  1
  C  C194  1  0.38190000  0.09570000  0.63650000  1
  C  C195  1  0.35000000  0.16260000  0.84190000  1
  C  C196  1  0.50112000  0.47053000  0.54440000  1
  C  C197  1  0.19820000  0.24440000  0.68100000  1
  C  C198  1  0.27440000  0.79730000  0.23930000  1
  C  C199  1  0.32850000  0.83450000  0.22080000  1
  C  C200  1  0.36380000  0.86950000  0.26080000  1
  C  C201  1  0.34510000  0.86740000  0.31910000  1
  C  C202  1  0.29120000  0.83040000  0.33750000  1
  C  C203  1  0.25580000  0.79580000  0.29730000  1
  C  C204  1  0.38190000  0.90430000  0.36350000  1
  C  C205  1  0.35000000  0.83740000  0.15810000  1
  C  C206  1  0.50112000  0.52947000  0.45560000  1
  C  C207  1  0.19820000  0.75560000  0.31900000  1
  C  C208  1  0.22560000  0.23930000  0.79730000  1
  C  C209  1  0.17150000  0.22080000  0.83450000  1
  C  C210  1  0.13620000  0.26080000  0.86950000  1
  C  C211  1  0.15490000  0.31910000  0.86740000  1
  C  C212  1  0.20880000  0.33750000  0.83040000  1
  C  C213  1  0.24420000  0.29730000  0.79580000  1
  C  C214  1  0.11810000  0.36350000  0.90430000  1
  C  C215  1  0.15000000  0.15810000  0.83740000  1
  C  C216  1  0.99888000  0.45560000  0.52947000  1
  C  C217  1  0.30180000  0.31900000  0.75560000  1
  C  C218  1  0.22560000  0.76070000  0.20270000  1
  C  C219  1  0.17150000  0.77920000  0.16550000  1
  C  C220  1  0.13620000  0.73920000  0.13050000  1
  C  C221  1  0.15490000  0.68090000  0.13260000  1
  C  C222  1  0.20880000  0.66250000  0.16960000  1
  C  C223  1  0.24420000  0.70270000  0.20420000  1
  C  C224  1  0.11810000  0.63650000  0.09570000  1
  C  C225  1  0.15000000  0.84190000  0.16260000  1
  C  C226  1  0.30180000  0.68100000  0.24440000  1
  C  C227  1  0.72560000  0.79730000  0.76070000  1
  C  C228  1  0.67150000  0.83450000  0.77920000  1
  C  C229  1  0.63620000  0.86950000  0.73920000  1
  C  C230  1  0.65490000  0.86740000  0.68090000  1
  C  C231  1  0.70880000  0.83040000  0.66250000  1
  C  C232  1  0.74420000  0.79580000  0.70270000  1
  C  C233  1  0.61810000  0.90430000  0.63650000  1
  C  C234  1  0.65000000  0.83740000  0.84190000  1
  C  C235  1  0.80180000  0.75560000  0.68100000  1
  C  C236  1  0.72560000  0.20270000  0.23930000  1
  C  C237  1  0.67150000  0.16550000  0.22080000  1
  C  C238  1  0.63620000  0.13050000  0.26080000  1
  C  C239  1  0.65490000  0.13260000  0.31910000  1
  C  C240  1  0.70880000  0.16960000  0.33750000  1
  C  C241  1  0.74420000  0.20420000  0.29730000  1
  C  C242  1  0.61810000  0.09570000  0.36350000  1
  C  C243  1  0.65000000  0.16260000  0.15810000  1
  C  C244  1  0.80180000  0.24440000  0.31900000  1
  C  C245  1  0.34900000  0.50000000  0.05224000  1
  C  C246  1  0.06430000  0.50000000  0.28450000  1
  C  C247  1  0.06440000  0.50000000  0.34500000  1
  C  C248  1  0.42330000  0.50000000  0.05220000  1
  C  C249  1  0.34900000  0.50000000  0.94776000  1
  C  C250  1  0.06430000  0.50000000  0.71550000  1
  C  C251  1  0.06440000  0.50000000  0.65500000  1
  C  C252  1  0.84900000  0.94776000  0.50000000  1
  C  C253  1  0.56430000  0.71550000  0.50000000  1
  C  C254  1  0.56440000  0.65500000  0.50000000  1
  C  C255  1  0.92330000  0.94780000  0.50000000  1
  C  C256  1  0.84900000  0.05224000  0.50000000  1
  C  C257  1  0.56430000  0.28450000  0.50000000  1
  C  C258  1  0.56440000  0.34500000  0.50000000  1
  C  C259  1  0.65100000  0.50000000  0.05224000  1
  C  C260  1  0.93570000  0.50000000  0.28450000  1
  C  C261  1  0.93560000  0.50000000  0.34500000  1
  C  C262  1  0.57670000  0.50000000  0.05220000  1
  C  C263  1  0.65100000  0.50000000  0.94776000  1
  C  C264  1  0.93570000  0.50000000  0.71550000  1
  C  C265  1  0.93560000  0.50000000  0.65500000  1
  C  C266  1  0.15100000  0.05224000  0.50000000  1
  C  C267  1  0.43570000  0.28450000  0.50000000  1
  C  C268  1  0.43560000  0.34500000  0.50000000  1
  C  C269  1  0.07670000  0.05220000  0.50000000  1
  C  C270  1  0.15100000  0.94776000  0.50000000  1
  C  C271  1  0.43570000  0.71550000  0.50000000  1
  C  C272  1  0.43560000  0.65500000  0.50000000  1
  C  C273  1  0.23270000  0.50000000  0.00000000  1
  C  C274  1  0.31200000  0.50000000  0.00000000  1
  C  C275  1  0.46020000  0.50000000  0.00000000  1
  C  C276  1  0.73270000  0.00000000  0.50000000  1
  C  C277  1  0.81200000  0.00000000  0.50000000  1
  C  C278  1  0.96020000  0.00000000  0.50000000  1
  C  C279  1  0.76730000  0.50000000  0.00000000  1
  C  C280  1  0.68800000  0.50000000  0.00000000  1
  C  C281  1  0.53980000  0.50000000  0.00000000  1
  C  C282  1  0.26730000  0.00000000  0.50000000  1
  C  C283  1  0.18800000  0.00000000  0.50000000  1
  C  C284  1  0.03980000  0.00000000  0.50000000  1
  C  C285  1  1.00000000  0.50000000  0.18990000  1
  C  C286  1  1.00000000  0.50000000  0.25460000  1
  C  C287  1  1.00000000  0.50000000  0.37520000  1
  C  C288  1  0.00000000  0.50000000  0.44000000  1
  C  C289  1  0.00000000  0.50000000  0.81010000  1
  C  C290  1  0.00000000  0.50000000  0.74540000  1
  C  C291  1  0.00000000  0.50000000  0.62480000  1
  C  C292  1  1.00000000  0.50000000  0.56000000  1
  C  C293  1  0.50000000  0.81010000  0.50000000  1
  C  C294  1  0.50000000  0.74540000  0.50000000  1
  C  C295  1  0.50000000  0.62480000  0.50000000  1
  C  C296  1  0.50000000  0.56000000  0.50000000  1
  C  C297  1  0.50000000  0.18990000  0.50000000  1
  C  C298  1  0.50000000  0.25460000  0.50000000  1
  C  C299  1  0.50000000  0.37520000  0.50000000  1
  C  C300  1  0.50000000  0.44000000  0.50000000  1
  I  I301  1  0.50000000  0.59530000  0.16140000  1
  I  I302  1  0.50000000  0.40470000  0.83860000  1
  I  I303  1  0.00000000  0.83860000  0.59530000  1
  I  I304  1  0.00000000  0.16140000  0.40470000  1
  I  I305  1  0.50000000  0.40470000  0.16140000  1
  I  I306  1  0.50000000  0.59530000  0.83860000  1
  I  I307  1  0.00000000  0.16140000  0.59530000  1
  I  I308  1  0.00000000  0.83860000  0.40470000  1
  N  N309  1  0.00068000  0.58820000  0.43490000  1
  N  N310  1  0.50068000  0.43490000  0.41180000  1
  N  N311  1  0.50068000  0.56510000  0.58820000  1
  N  N312  1  0.00068000  0.58820000  0.56510000  1
  N  N313  1  0.00068000  0.41180000  0.43490000  1
  N  N314  1  0.50068000  0.43490000  0.58820000  1
  N  N315  1  0.50068000  0.56510000  0.41180000  1
  N  N316  1  0.99932000  0.41180000  0.56510000  1
  N  N317  1  0.42330000  0.50000000  0.94780000  1
  N  N318  1  0.92330000  0.05220000  0.50000000  1
  N  N319  1  0.57670000  0.50000000  0.94780000  1
  N  N320  1  0.07670000  0.94780000  0.50000000  1
  O  O321  1  0.13600000  0.41590000  0.10750000  1
  O  O322  1  0.07200000  0.34370000  0.05930000  1
  O  O323  1  0.13600000  0.58410000  0.89250000  1
  O  O324  1  0.07200000  0.65630000  0.94070000  1
  O  O325  1  0.63600000  0.89250000  0.41590000  1
  O  O326  1  0.57200000  0.94070000  0.34370000  1
  O  O327  1  0.63600000  0.10750000  0.58410000  1
  O  O328  1  0.57200000  0.05930000  0.65630000  1
  O  O329  1  0.86400000  0.58410000  0.10750000  1
  O  O330  1  0.92800000  0.65630000  0.05930000  1
  O  O331  1  0.86400000  0.41590000  0.89250000  1
  O  O332  1  0.92800000  0.34370000  0.94070000  1
  O  O333  1  0.36400000  0.10750000  0.41590000  1
  O  O334  1  0.42800000  0.05930000  0.34370000  1
  O  O335  1  0.36400000  0.89250000  0.58410000  1
  O  O336  1  0.42800000  0.94070000  0.65630000  1
  O  O337  1  0.86400000  0.58410000  0.89250000  1
  O  O338  1  0.92800000  0.65630000  0.94070000  1
  O  O339  1  0.86400000  0.41590000  0.10750000  1
  O  O340  1  0.92800000  0.34370000  0.05930000  1
  O  O341  1  0.36400000  0.10750000  0.58410000  1
  O  O342  1  0.42800000  0.05930000  0.65630000  1
  O  O343  1  0.36400000  0.89250000  0.41590000  1
  O  O344  1  0.42800000  0.94070000  0.34370000  1
  O  O345  1  0.13600000  0.41590000  0.89250000  1
  O  O346  1  0.07200000  0.34370000  0.94070000  1
  O  O347  1  0.13600000  0.58410000  0.10750000  1
  O  O348  1  0.07200000  0.65630000  0.05930000  1
  O  O349  1  0.63600000  0.89250000  0.58410000  1
  O  O350  1  0.57200000  0.94070000  0.65630000  1
  O  O351  1  0.63600000  0.10750000  0.41590000  1
  O  O352  1  0.57200000  0.05930000  0.34370000  1
  O  O353  1  0.20680000  0.50000000  0.04930000  1
  O  O354  1  0.06020000  0.50000000  0.16750000  1
  O  O355  1  0.20680000  0.50000000  0.95070000  1
  O  O356  1  0.06020000  0.50000000  0.83250000  1
  O  O357  1  0.70680000  0.95070000  0.50000000  1
  O  O358  1  0.56020000  0.83250000  0.50000000  1
  O  O359  1  0.70680000  0.04930000  0.50000000  1
  O  O360  1  0.56020000  0.16750000  0.50000000  1
  O  O361  1  0.79320000  0.50000000  0.04930000  1
  O  O362  1  0.93980000  0.50000000  0.16750000  1
  O  O363  1  0.79320000  0.50000000  0.95070000  1
  O  O364  1  0.93980000  0.50000000  0.83250000  1
  O  O365  1  0.29320000  0.04930000  0.50000000  1
  O  O366  1  0.43980000  0.16750000  0.50000000  1
  O  O367  1  0.29320000  0.95070000  0.50000000  1
  O  O368  1  0.43980000  0.83250000  0.50000000  1
  O  O369  1  0.00000000  0.44580000  0.07540000  1
  O  O370  1  0.00000000  0.55420000  0.92460000  1
  O  O371  1  0.50000000  0.92460000  0.44580000  1
  O  O372  1  0.50000000  0.07540000  0.55420000  1
  O  O373  1  1.00000000  0.55420000  0.07540000  1
  O  O374  1  1.00000000  0.44580000  0.92460000  1
  O  O375  1  0.50000000  0.07540000  0.44580000  1
  O  O376  1  0.50000000  0.92460000  0.55420000  1
  O  O377  1  0.09090000  0.55390000  0.00000000  1
  O  O378  1  0.09090000  0.44610000  0.00000000  1
  O  O379  1  0.59090000  1.00000000  0.55390000  1
  O  O380  1  0.59090000  0.00000000  0.44610000  1
  O  O381  1  0.90910000  0.44610000  0.00000000  1
  O  O382  1  0.90910000  0.55390000  0.00000000  1
  O  O383  1  0.40910000  1.00000000  0.55390000  1
  O  O384  1  0.40910000  0.00000000  0.44610000  1
  F  F385  1  0.20350000  0.12320000  0.14870000  1
  F  F386  1  0.12450000  0.14070000  0.21440000  1
  F  F387  1  0.09660000  0.15070000  0.12460000  1
  F  F388  1  0.31470000  0.37520000  0.23440000  1
  F  F389  1  0.36250000  0.29040000  0.23960000  1
  F  F390  1  0.27790000  0.31390000  0.29930000  1
  F  F391  1  0.20350000  0.87680000  0.85130000  1
  F  F392  1  0.12450000  0.85930000  0.78560000  1
  F  F393  1  0.09660000  0.84930000  0.87540000  1
  F  F394  1  0.31470000  0.62480000  0.76560000  1
  F  F395  1  0.36250000  0.70960000  0.76040000  1
  F  F396  1  0.27790000  0.68610000  0.70070000  1
  F  F397  1  0.70350000  0.85130000  0.12320000  1
  F  F398  1  0.62450000  0.78560000  0.14070000  1
  F  F399  1  0.59660000  0.87540000  0.15070000  1
  F  F400  1  0.81470000  0.76560000  0.37520000  1
  F  F401  1  0.86250000  0.76040000  0.29040000  1
  F  F402  1  0.77790000  0.70070000  0.31390000  1
  F  F403  1  0.70350000  0.14870000  0.87680000  1
  F  F404  1  0.62450000  0.21440000  0.85930000  1
  F  F405  1  0.59660000  0.12460000  0.84930000  1
  F  F406  1  0.81470000  0.23440000  0.62480000  1
  F  F407  1  0.86250000  0.23960000  0.70960000  1
  F  F408  1  0.77790000  0.29930000  0.68610000  1
  F  F409  1  0.79650000  0.87680000  0.14870000  1
  F  F410  1  0.87550000  0.85930000  0.21440000  1
  F  F411  1  0.90340000  0.84930000  0.12460000  1
  F  F412  1  0.68530000  0.62480000  0.23440000  1
  F  F413  1  0.63750000  0.70960000  0.23960000  1
  F  F414  1  0.72210000  0.68610000  0.29930000  1
  F  F415  1  0.79650000  0.12320000  0.85130000  1
  F  F416  1  0.87550000  0.14070000  0.78560000  1
  F  F417  1  0.90340000  0.15070000  0.87540000  1
  F  F418  1  0.68530000  0.37520000  0.76560000  1
  F  F419  1  0.63750000  0.29040000  0.76040000  1
  F  F420  1  0.72210000  0.31390000  0.70070000  1
  F  F421  1  0.29650000  0.14870000  0.12320000  1
  F  F422  1  0.37550000  0.21440000  0.14070000  1
  F  F423  1  0.40340000  0.12460000  0.15070000  1
  F  F424  1  0.18530000  0.23440000  0.37520000  1
  F  F425  1  0.13750000  0.23960000  0.29040000  1
  F  F426  1  0.22210000  0.29930000  0.31390000  1
  F  F427  1  0.29650000  0.85130000  0.87680000  1
  F  F428  1  0.37550000  0.78560000  0.85930000  1
  F  F429  1  0.40340000  0.87540000  0.84930000  1
  F  F430  1  0.18530000  0.76560000  0.62480000  1
  F  F431  1  0.13750000  0.76040000  0.70960000  1
  F  F432  1  0.22210000  0.70070000  0.68610000  1
  F  F433  1  0.79650000  0.87680000  0.85130000  1
  F  F434  1  0.87550000  0.85930000  0.78560000  1
  F  F435  1  0.90340000  0.84930000  0.87540000  1
  F  F436  1  0.68530000  0.62480000  0.76560000  1
  F  F437  1  0.63750000  0.70960000  0.76040000  1
  F  F438  1  0.72210000  0.68610000  0.70070000  1
  F  F439  1  0.79650000  0.12320000  0.14870000  1
  F  F440  1  0.87550000  0.14070000  0.21440000  1
  F  F441  1  0.90340000  0.15070000  0.12460000  1
  F  F442  1  0.68530000  0.37520000  0.23440000  1
  F  F443  1  0.63750000  0.29040000  0.23960000  1
  F  F444  1  0.72210000  0.31390000  0.29930000  1
  F  F445  1  0.29650000  0.14870000  0.87680000  1
  F  F446  1  0.37550000  0.21440000  0.85930000  1
  F  F447  1  0.40340000  0.12460000  0.84930000  1
  F  F448  1  0.18530000  0.23440000  0.62480000  1
  F  F449  1  0.13750000  0.23960000  0.70960000  1
  F  F450  1  0.22210000  0.29930000  0.68610000  1
  F  F451  1  0.29650000  0.85130000  0.12320000  1
  F  F452  1  0.37550000  0.78560000  0.14070000  1
  F  F453  1  0.40340000  0.87540000  0.15070000  1
  F  F454  1  0.18530000  0.76560000  0.37520000  1
  F  F455  1  0.13750000  0.76040000  0.29040000  1
  F  F456  1  0.22210000  0.70070000  0.31390000  1
  F  F457  1  0.20350000  0.12320000  0.85130000  1
  F  F458  1  0.12450000  0.14070000  0.78560000  1
  F  F459  1  0.09660000  0.15070000  0.87540000  1
  F  F460  1  0.31470000  0.37520000  0.76560000  1
  F  F461  1  0.36250000  0.29040000  0.76040000  1
  F  F462  1  0.27790000  0.31390000  0.70070000  1
  F  F463  1  0.20350000  0.87680000  0.14870000  1
  F  F464  1  0.12450000  0.85930000  0.21440000  1
  F  F465  1  0.09660000  0.84930000  0.12460000  1
  F  F466  1  0.31470000  0.62480000  0.23440000  1
  F  F467  1  0.36250000  0.70960000  0.23960000  1
  F  F468  1  0.27790000  0.68610000  0.29930000  1
  F  F469  1  0.70350000  0.85130000  0.87680000  1
  F  F470  1  0.62450000  0.78560000  0.85930000  1
  F  F471  1  0.59660000  0.87540000  0.84930000  1
  F  F472  1  0.81470000  0.76560000  0.62480000  1
  F  F473  1  0.86250000  0.76040000  0.70960000  1
  F  F474  1  0.77790000  0.70070000  0.68610000  1
  F  F475  1  0.70350000  0.14870000  0.12320000  1
  F  F476  1  0.62450000  0.21440000  0.14070000  1
  F  F477  1  0.59660000  0.12460000  0.15070000  1
  F  F478  1  0.81470000  0.23440000  0.37520000  1
  F  F479  1  0.86250000  0.23960000  0.29040000  1
  F  F480  1  0.77790000  0.29930000  0.31390000  1
