# generated using pymatgen
data_Zr3H12C43(O7F12)2
_symmetry_space_group_name_H-M   'P 1'
_cell_length_a   18.81190000
_cell_length_b   23.00840000
_cell_length_c   23.00840000
_cell_angle_alpha   90.00000000
_cell_angle_beta   90.00000000
_cell_angle_gamma   90.00000000
_symmetry_Int_Tables_number   1
_chemical_formula_structural   Zr3H12C43(O7F12)2
_chemical_formula_sum   'Zr12 H48 C172 O56 F96'
_cell_volume   9958.76534553
_cell_formula_units_Z   4
loop_
 _symmetry_equiv_pos_site_id
 _symmetry_equiv_pos_as_xyz
  1  'x, y, z'
loop_
 _atom_site_type_symbol
 _atom_site_label
 _atom_site_symmetry_multiplicity
 _atom_site_fract_x
 _atom_site_fract_y
 _atom_site_fract_z
 _atom_site_occupancy
  Zr  Zr0  1  0.50000000  0.50000000  0.89276000  1
  Zr  Zr1  1  0.59380000  0.57579000  0.00000000  1
  Zr  Zr2  1  0.00000000  0.10724000  0.50000000  1
  Zr  Zr3  1  0.09380000  0.00000000  0.57579000  1
  Zr  Zr4  1  0.50000000  0.50000000  0.10724000  1
  Zr  Zr5  1  0.59380000  0.42421000  0.00000000  1
  Zr  Zr6  1  0.00000000  0.89276000  0.50000000  1
  Zr  Zr7  1  0.09380000  0.00000000  0.42421000  1
  Zr  Zr8  1  0.40620000  0.57579000  0.00000000  1
  Zr  Zr9  1  0.90620000  0.00000000  0.57579000  1
  Zr  Zr10  1  0.40620000  0.42421000  0.00000000  1
  Zr  Zr11  1  0.90620000  0.00000000  0.42421000  1
  H  H12  1  0.40850000  0.38960000  0.74850000  1
  H  H13  1  0.26600000  0.34300000  0.87200000  1
  H  H14  1  0.82550000  0.58870000  0.00000000  1
  H  H15  1  0.95000000  0.58790000  0.00000000  1
  H  H16  1  0.90850000  0.25150000  0.38960000  1
  H  H17  1  0.76600000  0.12800000  0.34300000  1
  H  H18  1  0.32550000  0.00000000  0.58870000  1
  H  H19  1  0.45000000  1.00000000  0.58790000  1
  H  H20  1  0.40850000  0.61040000  0.25150000  1
  H  H21  1  0.26600000  0.65700000  0.12800000  1
  H  H22  1  0.82550000  0.41130000  0.00000000  1
  H  H23  1  0.95000000  0.41210000  0.00000000  1
  H  H24  1  0.90850000  0.74850000  0.61040000  1
  H  H25  1  0.76600000  0.87200000  0.65700000  1
  H  H26  1  0.32550000  1.00000000  0.41130000  1
  H  H27  1  0.45000000  0.00000000  0.41210000  1
  H  H28  1  0.59150000  0.38960000  0.25150000  1
  H  H29  1  0.73400000  0.34300000  0.12800000  1
  H  H30  1  0.17450000  0.58870000  0.00000000  1
  H  H31  1  0.05000000  0.58790000  0.00000000  1
  H  H32  1  0.09150000  0.74850000  0.38960000  1
  H  H33  1  0.23400000  0.87200000  0.34300000  1
  H  H34  1  0.67450000  0.00000000  0.58870000  1
  H  H35  1  0.55000000  1.00000000  0.58790000  1
  H  H36  1  0.59150000  0.61040000  0.74850000  1
  H  H37  1  0.73400000  0.65700000  0.87200000  1
  H  H38  1  0.17450000  0.41130000  0.00000000  1
  H  H39  1  0.05000000  0.41210000  0.00000000  1
  H  H40  1  0.09150000  0.25150000  0.61040000  1
  H  H41  1  0.23400000  0.12800000  0.65700000  1
  H  H42  1  0.67450000  1.00000000  0.41130000  1
  H  H43  1  0.55000000  0.00000000  0.41210000  1
  H  H44  1  0.59150000  0.61040000  0.25150000  1
  H  H45  1  0.73400000  0.65700000  0.12800000  1
  H  H46  1  0.09150000  0.74850000  0.61040000  1
  H  H47  1  0.23400000  0.87200000  0.65700000  1
  H  H48  1  0.59150000  0.38960000  0.74850000  1
  H  H49  1  0.73400000  0.34300000  0.87200000  1
  H  H50  1  0.09150000  0.25150000  0.38960000  1
  H  H51  1  0.23400000  0.12800000  0.34300000  1
  H  H52  1  0.40850000  0.61040000  0.74850000  1
  H  H53  1  0.26600000  0.65700000  0.87200000  1
  H  H54  1  0.90850000  0.25150000  0.61040000  1
  H  H55  1  0.76600000  0.12800000  0.65700000  1
  H  H56  1  0.40850000  0.38960000  0.25150000  1
  H  H57  1  0.26600000  0.34300000  0.12800000  1
  H  H58  1  0.90850000  0.74850000  0.38960000  1
  H  H59  1  0.76600000  0.87200000  0.34300000  1
  C  C60  1  0.26880000  0.30640000  0.73480000  1
  C  C61  1  0.32960000  0.33630000  0.71820000  1
  C  C62  1  0.36680000  0.36900000  0.75950000  1
  C  C63  1  0.34280000  0.37130000  0.81660000  1
  C  C64  1  0.28220000  0.34140000  0.83290000  1
  C  C65  1  0.24510000  0.30870000  0.79180000  1
  C  C66  1  0.38160000  0.40580000  0.86140000  1
  C  C67  1  0.35720000  0.33470000  0.65760000  1
  C  C68  1  0.18010000  0.27770000  0.81130000  1
  C  C69  1  0.85060000  0.55290000  0.00000000  1
  C  C70  1  0.92440000  0.55230000  0.00000000  1
  C  C71  1  0.73470000  0.50000000  0.00000000  1
  C  C72  1  0.81350000  0.50000000  0.00000000  1
  C  C73  1  0.96080000  0.50000000  0.00000000  1
  C  C74  1  0.76880000  0.26520000  0.30640000  1
  C  C75  1  0.82960000  0.28180000  0.33630000  1
  C  C76  1  0.86680000  0.24050000  0.36900000  1
  C  C77  1  0.84280000  0.18340000  0.37130000  1
  C  C78  1  0.78220000  0.16710000  0.34140000  1
  C  C79  1  0.74510000  0.20820000  0.30870000  1
  C  C80  1  0.88160000  0.13860000  0.40580000  1
  C  C81  1  0.85720000  0.34240000  0.33470000  1
  C  C82  1  0.68010000  0.18870000  0.27770000  1
  C  C83  1  0.35060000  0.00000000  0.55290000  1
  C  C84  1  0.42440000  0.00000000  0.55230000  1
  C  C85  1  0.23470000  0.00000000  0.50000000  1
  C  C86  1  0.31350000  0.00000000  0.50000000  1
  C  C87  1  0.46080000  0.00000000  0.50000000  1
  C  C88  1  0.26880000  0.69360000  0.26520000  1
  C  C89  1  0.32960000  0.66370000  0.28180000  1
  C  C90  1  0.36680000  0.63100000  0.24050000  1
  C  C91  1  0.34280000  0.62870000  0.18340000  1
  C  C92  1  0.28220000  0.65860000  0.16710000  1
  C  C93  1  0.24510000  0.69130000  0.20820000  1
  C  C94  1  0.38160000  0.59420000  0.13860000  1
  C  C95  1  0.35720000  0.66530000  0.34240000  1
  C  C96  1  0.18010000  0.72230000  0.18870000  1
  C  C97  1  0.85060000  0.44710000  0.00000000  1
  C  C98  1  0.92440000  0.44770000  0.00000000  1
  C  C99  1  0.76880000  0.73480000  0.69360000  1
  C  C100  1  0.82960000  0.71820000  0.66370000  1
  C  C101  1  0.86680000  0.75950000  0.63100000  1
  C  C102  1  0.84280000  0.81660000  0.62870000  1
  C  C103  1  0.78220000  0.83290000  0.65860000  1
  C  C104  1  0.74510000  0.79180000  0.69130000  1
  C  C105  1  0.88160000  0.86140000  0.59420000  1
  C  C106  1  0.85720000  0.65760000  0.66530000  1
  C  C107  1  0.68010000  0.81130000  0.72230000  1
  C  C108  1  0.35060000  0.00000000  0.44710000  1
  C  C109  1  0.42440000  0.00000000  0.44770000  1
  C  C110  1  0.73120000  0.30640000  0.26520000  1
  C  C111  1  0.67040000  0.33630000  0.28180000  1
  C  C112  1  0.63320000  0.36900000  0.24050000  1
  C  C113  1  0.65720000  0.37130000  0.18340000  1
  C  C114  1  0.71780000  0.34140000  0.16710000  1
  C  C115  1  0.75490000  0.30870000  0.20820000  1
  C  C116  1  0.61840000  0.40580000  0.13860000  1
  C  C117  1  0.64280000  0.33470000  0.34240000  1
  C  C118  1  0.81990000  0.27770000  0.18870000  1
  C  C119  1  0.14940000  0.55290000  0.00000000  1
  C  C120  1  0.07560000  0.55230000  0.00000000  1
  C  C121  1  0.26530000  0.50000000  0.00000000  1
  C  C122  1  0.18650000  0.50000000  0.00000000  1
  C  C123  1  0.03920000  0.50000000  0.00000000  1
  C  C124  1  0.23120000  0.73480000  0.30640000  1
  C  C125  1  0.17040000  0.71820000  0.33630000  1
  C  C126  1  0.13320000  0.75950000  0.36900000  1
  C  C127  1  0.15720000  0.81660000  0.37130000  1
  C  C128  1  0.21780000  0.83290000  0.34140000  1
  C  C129  1  0.25490000  0.79180000  0.30870000  1
  C  C130  1  0.11840000  0.86140000  0.40580000  1
  C  C131  1  0.14280000  0.65760000  0.33470000  1
  C  C132  1  0.31990000  0.81130000  0.27770000  1
  C  C133  1  0.64940000  0.00000000  0.55290000  1
  C  C134  1  0.57560000  0.00000000  0.55230000  1
  C  C135  1  0.76530000  0.00000000  0.50000000  1
  C  C136  1  0.68650000  0.00000000  0.50000000  1
  C  C137  1  0.53920000  0.00000000  0.50000000  1
  C  C138  1  0.73120000  0.69360000  0.73480000  1
  C  C139  1  0.67040000  0.66370000  0.71820000  1
  C  C140  1  0.63320000  0.63100000  0.75950000  1
  C  C141  1  0.65720000  0.62870000  0.81660000  1
  C  C142  1  0.71780000  0.65860000  0.83290000  1
  C  C143  1  0.75490000  0.69130000  0.79180000  1
  C  C144  1  0.61840000  0.59420000  0.86140000  1
  C  C145  1  0.64280000  0.66530000  0.65760000  1
  C  C146  1  0.81990000  0.72230000  0.81130000  1
  C  C147  1  0.14940000  0.44710000  0.00000000  1
  C  C148  1  0.07560000  0.44770000  0.00000000  1
  C  C149  1  0.23120000  0.26520000  0.69360000  1
  C  C150  1  0.17040000  0.28180000  0.66370000  1
  C  C151  1  0.13320000  0.24050000  0.63100000  1
  C  C152  1  0.15720000  0.18340000  0.62870000  1
  C  C153  1  0.21780000  0.16710000  0.65860000  1
  C  C154  1  0.25490000  0.20820000  0.69130000  1
  C  C155  1  0.11840000  0.13860000  0.59420000  1
  C  C156  1  0.14280000  0.34240000  0.66530000  1
  C  C157  1  0.31990000  0.18870000  0.72230000  1
  C  C158  1  0.64940000  0.00000000  0.44710000  1
  C  C159  1  0.57560000  0.00000000  0.44770000  1
  C  C160  1  0.73120000  0.69360000  0.26520000  1
  C  C161  1  0.67040000  0.66370000  0.28180000  1
  C  C162  1  0.63320000  0.63100000  0.24050000  1
  C  C163  1  0.65720000  0.62870000  0.18340000  1
  C  C164  1  0.71780000  0.65860000  0.16710000  1
  C  C165  1  0.75490000  0.69130000  0.20820000  1
  C  C166  1  0.61840000  0.59420000  0.13860000  1
  C  C167  1  0.64280000  0.66530000  0.34240000  1
  C  C168  1  0.81990000  0.72230000  0.18870000  1
  C  C169  1  0.23120000  0.73480000  0.69360000  1
  C  C170  1  0.17040000  0.71820000  0.66370000  1
  C  C171  1  0.13320000  0.75950000  0.63100000  1
  C  C172  1  0.15720000  0.81660000  0.62870000  1
  C  C173  1  0.21780000  0.83290000  0.65860000  1
  C  C174  1  0.25490000  0.79180000  0.69130000  1
  C  C175  1  0.11840000  0.86140000  0.59420000  1
  C  C176  1  0.14280000  0.65760000  0.66530000  1
  C  C177  1  0.31990000  0.81130000  0.72230000  1
  C  C178  1  0.73120000  0.30640000  0.73480000  1
  C  C179  1  0.67040000  0.33630000  0.71820000  1
  C  C180  1  0.63320000  0.36900000  0.75950000  1
  C  C181  1  0.65720000  0.37130000  0.81660000  1
  C  C182  1  0.71780000  0.34140000  0.83290000  1
  C  C183  1  0.75490000  0.30870000  0.79180000  1
  C  C184  1  0.61840000  0.40580000  0.86140000  1
  C  C185  1  0.64280000  0.33470000  0.65760000  1
  C  C186  1  0.81990000  0.27770000  0.81130000  1
  C  C187  1  0.23120000  0.26520000  0.30640000  1
  C  C188  1  0.17040000  0.28180000  0.33630000  1
  C  C189  1  0.13320000  0.24050000  0.36900000  1
  C  C190  1  0.15720000  0.18340000  0.37130000  1
  C  C191  1  0.21780000  0.16710000  0.34140000  1
  C  C192  1  0.25490000  0.20820000  0.30870000  1
  C  C193  1  0.11840000  0.13860000  0.40580000  1
  C  C194  1  0.14280000  0.34240000  0.33470000  1
  C  C195  1  0.31990000  0.18870000  0.27770000  1
  C  C196  1  0.26880000  0.69360000  0.73480000  1
  C  C197  1  0.32960000  0.66370000  0.71820000  1
  C  C198  1  0.36680000  0.63100000  0.75950000  1
  C  C199  1  0.34280000  0.62870000  0.81660000  1
  C  C200  1  0.28220000  0.65860000  0.83290000  1
  C  C201  1  0.24510000  0.69130000  0.79180000  1
  C  C202  1  0.38160000  0.59420000  0.86140000  1
  C  C203  1  0.35720000  0.66530000  0.65760000  1
  C  C204  1  0.18010000  0.72230000  0.81130000  1
  C  C205  1  0.76880000  0.26520000  0.69360000  1
  C  C206  1  0.82960000  0.28180000  0.66370000  1
  C  C207  1  0.86680000  0.24050000  0.63100000  1
  C  C208  1  0.84280000  0.18340000  0.62870000  1
  C  C209  1  0.78220000  0.16710000  0.65860000  1
  C  C210  1  0.74510000  0.20820000  0.69130000  1
  C  C211  1  0.88160000  0.13860000  0.59420000  1
  C  C212  1  0.85720000  0.34240000  0.66530000  1
  C  C213  1  0.68010000  0.18870000  0.72230000  1
  C  C214  1  0.26880000  0.30640000  0.26520000  1
  C  C215  1  0.32960000  0.33630000  0.28180000  1
  C  C216  1  0.36680000  0.36900000  0.24050000  1
  C  C217  1  0.34280000  0.37130000  0.18340000  1
  C  C218  1  0.28220000  0.34140000  0.16710000  1
  C  C219  1  0.24510000  0.30870000  0.20820000  1
  C  C220  1  0.38160000  0.40580000  0.13860000  1
  C  C221  1  0.35720000  0.33470000  0.34240000  1
  C  C222  1  0.18010000  0.27770000  0.18870000  1
  C  C223  1  0.76880000  0.73480000  0.30640000  1
  C  C224  1  0.82960000  0.71820000  0.33630000  1
  C  C225  1  0.86680000  0.75950000  0.36900000  1
  C  C226  1  0.84280000  0.81660000  0.37130000  1
  C  C227  1  0.78220000  0.83290000  0.34140000  1
  C  C228  1  0.74510000  0.79180000  0.30870000  1
  C  C229  1  0.88160000  0.86140000  0.40580000  1
  C  C230  1  0.85720000  0.65760000  0.33470000  1
  C  C231  1  0.68010000  0.81130000  0.27770000  1
  O  O232  1  0.42880000  0.44160000  0.84320000  1
  O  O233  1  0.36510000  0.39540000  0.91370000  1
  O  O234  1  0.70760000  0.55520000  0.00000000  1
  O  O235  1  0.59190000  0.50000000  0.94770000  1
  O  O236  1  0.50000000  0.57730000  0.94760000  1
  O  O237  1  0.92880000  0.15680000  0.44160000  1
  O  O238  1  0.86510000  0.08630000  0.39540000  1
  O  O239  1  0.20760000  0.00000000  0.55520000  1
  O  O240  1  0.09190000  0.05230000  0.50000000  1
  O  O241  1  0.00000000  0.05240000  0.57730000  1
  O  O242  1  0.42880000  0.55840000  0.15680000  1
  O  O243  1  0.36510000  0.60460000  0.08630000  1
  O  O244  1  0.70760000  0.44480000  0.00000000  1
  O  O245  1  0.59190000  0.50000000  0.05230000  1
  O  O246  1  0.50000000  0.42270000  0.05240000  1
  O  O247  1  0.92880000  0.84320000  0.55840000  1
  O  O248  1  0.86510000  0.91370000  0.60460000  1
  O  O249  1  0.20760000  1.00000000  0.44480000  1
  O  O250  1  0.09190000  0.94770000  0.50000000  1
  O  O251  1  0.00000000  0.94760000  0.42270000  1
  O  O252  1  0.57120000  0.44160000  0.15680000  1
  O  O253  1  0.63490000  0.39540000  0.08630000  1
  O  O254  1  0.29240000  0.55520000  0.00000000  1
  O  O255  1  0.40810000  0.50000000  0.05230000  1
  O  O256  1  0.50000000  0.57730000  0.05240000  1
  O  O257  1  0.07120000  0.84320000  0.44160000  1
  O  O258  1  0.13490000  0.91370000  0.39540000  1
  O  O259  1  0.79240000  0.00000000  0.55520000  1
  O  O260  1  0.90810000  0.94770000  0.50000000  1
  O  O261  1  0.00000000  0.94760000  0.57730000  1
  O  O262  1  0.57120000  0.55840000  0.84320000  1
  O  O263  1  0.63490000  0.60460000  0.91370000  1
  O  O264  1  0.29240000  0.44480000  0.00000000  1
  O  O265  1  0.40810000  0.50000000  0.94770000  1
  O  O266  1  0.50000000  0.42270000  0.94760000  1
  O  O267  1  0.07120000  0.15680000  0.55840000  1
  O  O268  1  0.13490000  0.08630000  0.60460000  1
  O  O269  1  0.79240000  1.00000000  0.44480000  1
  O  O270  1  0.90810000  0.05230000  0.50000000  1
  O  O271  1  0.00000000  0.05240000  0.42270000  1
  O  O272  1  0.57120000  0.55840000  0.15680000  1
  O  O273  1  0.63490000  0.60460000  0.08630000  1
  O  O274  1  0.07120000  0.84320000  0.55840000  1
  O  O275  1  0.13490000  0.91370000  0.60460000  1
  O  O276  1  0.57120000  0.44160000  0.84320000  1
  O  O277  1  0.63490000  0.39540000  0.91370000  1
  O  O278  1  0.07120000  0.15680000  0.44160000  1
  O  O279  1  0.13490000  0.08630000  0.39540000  1
  O  O280  1  0.42880000  0.55840000  0.84320000  1
  O  O281  1  0.36510000  0.60460000  0.91370000  1
  O  O282  1  0.92880000  0.15680000  0.55840000  1
  O  O283  1  0.86510000  0.08630000  0.60460000  1
  O  O284  1  0.42880000  0.44160000  0.15680000  1
  O  O285  1  0.36510000  0.39540000  0.08630000  1
  O  O286  1  0.92880000  0.84320000  0.44160000  1
  O  O287  1  0.86510000  0.91370000  0.39540000  1
  F  F288  1  0.38580000  0.28300000  0.64360000  1
  F  F289  1  0.40950000  0.37270000  0.64830000  1
  F  F290  1  0.31070000  0.34560000  0.61630000  1
  F  F291  1  0.12370000  0.28770000  0.77830000  1
  F  F292  1  0.15810000  0.29400000  0.86410000  1
  F  F293  1  0.18830000  0.22070000  0.81470000  1
  F  F294  1  0.88580000  0.35640000  0.28300000  1
  F  F295  1  0.90950000  0.35170000  0.37270000  1
  F  F296  1  0.81070000  0.38370000  0.34560000  1
  F  F297  1  0.62370000  0.22170000  0.28770000  1
  F  F298  1  0.65810000  0.13590000  0.29400000  1
  F  F299  1  0.68830000  0.18530000  0.22070000  1
  F  F300  1  0.38580000  0.71700000  0.35640000  1
  F  F301  1  0.40950000  0.62730000  0.35170000  1
  F  F302  1  0.31070000  0.65440000  0.38370000  1
  F  F303  1  0.12370000  0.71230000  0.22170000  1
  F  F304  1  0.15810000  0.70600000  0.13590000  1
  F  F305  1  0.18830000  0.77930000  0.18530000  1
  F  F306  1  0.88580000  0.64360000  0.71700000  1
  F  F307  1  0.90950000  0.64830000  0.62730000  1
  F  F308  1  0.81070000  0.61630000  0.65440000  1
  F  F309  1  0.62370000  0.77830000  0.71230000  1
  F  F310  1  0.65810000  0.86410000  0.70600000  1
  F  F311  1  0.68830000  0.81470000  0.77930000  1
  F  F312  1  0.61420000  0.28300000  0.35640000  1
  F  F313  1  0.59050000  0.37270000  0.35170000  1
  F  F314  1  0.68930000  0.34560000  0.38370000  1
  F  F315  1  0.87630000  0.28770000  0.22170000  1
  F  F316  1  0.84190000  0.29400000  0.13590000  1
  F  F317  1  0.81170000  0.22070000  0.18530000  1
  F  F318  1  0.11420000  0.64360000  0.28300000  1
  F  F319  1  0.09050000  0.64830000  0.37270000  1
  F  F320  1  0.18930000  0.61630000  0.34560000  1
  F  F321  1  0.37630000  0.77830000  0.28770000  1
  F  F322  1  0.34190000  0.86410000  0.29400000  1
  F  F323  1  0.31170000  0.81470000  0.22070000  1
  F  F324  1  0.61420000  0.71700000  0.64360000  1
  F  F325  1  0.59050000  0.62730000  0.64830000  1
  F  F326  1  0.68930000  0.65440000  0.61630000  1
  F  F327  1  0.87630000  0.71230000  0.77830000  1
  F  F328  1  0.84190000  0.70600000  0.86410000  1
  F  F329  1  0.81170000  0.77930000  0.81470000  1
  F  F330  1  0.11420000  0.35640000  0.71700000  1
  F  F331  1  0.09050000  0.35170000  0.62730000  1
  F  F332  1  0.18930000  0.38370000  0.65440000  1
  F  F333  1  0.37630000  0.22170000  0.71230000  1
  F  F334  1  0.34190000  0.13590000  0.70600000  1
  F  F335  1  0.31170000  0.18530000  0.77930000  1
  F  F336  1  0.61420000  0.71700000  0.35640000  1
  F  F337  1  0.59050000  0.62730000  0.35170000  1
  F  F338  1  0.68930000  0.65440000  0.38370000  1
  F  F339  1  0.87630000  0.71230000  0.22170000  1
  F  F340  1  0.84190000  0.70600000  0.13590000  1
  F  F341  1  0.81170000  0.77930000  0.18530000  1
  F  F342  1  0.11420000  0.64360000  0.71700000  1
  F  F343  1  0.09050000  0.64830000  0.62730000  1
  F  F344  1  0.18930000  0.61630000  0.65440000  1
  F  F345  1  0.37630000  0.77830000  0.71230000  1
  F  F346  1  0.34190000  0.86410000  0.70600000  1
  F  F347  1  0.31170000  0.81470000  0.77930000  1
  F  F348  1  0.61420000  0.28300000  0.64360000  1
  F  F349  1  0.59050000  0.37270000  0.64830000  1
  F  F350  1  0.68930000  0.34560000  0.61630000  1
  F  F351  1  0.87630000  0.28770000  0.77830000  1
  F  F352  1  0.84190000  0.29400000  0.86410000  1
  F  F353  1  0.81170000  0.22070000  0.81470000  1
  F  F354  1  0.11420000  0.35640000  0.28300000  1
  F  F355  1  0.09050000  0.35170000  0.37270000  1
  F  F356  1  0.18930000  0.38370000  0.34560000  1
  F  F357  1  0.37630000  0.22170000  0.28770000  1
  F  F358  1  0.34190000  0.13590000  0.29400000  1
  F  F359  1  0.31170000  0.18530000  0.22070000  1
  F  F360  1  0.38580000  0.71700000  0.64360000  1
  F  F361  1  0.40950000  0.62730000  0.64830000  1
  F  F362  1  0.31070000  0.65440000  0.61630000  1
  F  F363  1  0.12370000  0.71230000  0.77830000  1
  F  F364  1  0.15810000  0.70600000  0.86410000  1
  F  F365  1  0.18830000  0.77930000  0.81470000  1
  F  F366  1  0.88580000  0.35640000  0.71700000  1
  F  F367  1  0.90950000  0.35170000  0.62730000  1
  F  F368  1  0.81070000  0.38370000  0.65440000  1
  F  F369  1  0.62370000  0.22170000  0.71230000  1
  F  F370  1  0.65810000  0.13590000  0.70600000  1
  F  F371  1  0.68830000  0.18530000  0.77930000  1
  F  F372  1  0.38580000  0.28300000  0.35640000  1
  F  F373  1  0.40950000  0.37270000  0.35170000  1
  F  F374  1  0.31070000  0.34560000  0.38370000  1
  F  F375  1  0.12370000  0.28770000  0.22170000  1
  F  F376  1  0.15810000  0.29400000  0.13590000  1
  F  F377  1  0.18830000  0.22070000  0.18530000  1
  F  F378  1  0.88580000  0.64360000  0.28300000  1
  F  F379  1  0.90950000  0.64830000  0.37270000  1
  F  F380  1  0.81070000  0.61630000  0.34560000  1
  F  F381  1  0.62370000  0.77830000  0.28770000  1
  F  F382  1  0.65810000  0.86410000  0.29400000  1
  F  F383  1  0.68830000  0.81470000  0.22070000  1
