# generated using pymatgen
data_Zr3CuH10C42I2N(O7F12)2
_symmetry_space_group_name_H-M   'P 1'
_cell_length_a   18.80600000
_cell_length_b   22.95700000
_cell_length_c   22.95700000
_cell_angle_alpha   90.00000000
_cell_angle_beta   90.00000000
_cell_angle_gamma   90.00000000
_symmetry_Int_Tables_number   1
_chemical_formula_structural   Zr3CuH10C42I2N(O7F12)2
_chemical_formula_sum   'Zr12 Cu4 H40 C168 I8 N4 O56 F96'
_cell_volume   9911.21050429
_cell_formula_units_Z   4
loop_
 _symmetry_equiv_pos_site_id
 _symmetry_equiv_pos_as_xyz
  1  'x, y, z'
loop_
 _atom_site_type_symbol
 _atom_site_label
 _atom_site_symmetry_multiplicity
 _atom_site_fract_x
 _atom_site_fract_y
 _atom_site_fract_z
 _atom_site_occupancy
  Zr  Zr0  1  0.90668000  0.50000000  0.92433000  1
  Zr  Zr1  1  0.00000000  0.39217000  0.00000000  1
  Zr  Zr2  1  0.40668000  0.07567000  0.50000000  1
  Zr  Zr3  1  0.50000000  1.00000000  0.39217000  1
  Zr  Zr4  1  0.90668000  0.50000000  0.07567000  1
  Zr  Zr5  1  0.00000000  0.60783000  0.00000000  1
  Zr  Zr6  1  0.40668000  0.92433000  0.50000000  1
  Zr  Zr7  1  0.50000000  1.00000000  0.60783000  1
  Zr  Zr8  1  0.09332000  0.50000000  0.07567000  1
  Zr  Zr9  1  0.59332000  0.92433000  0.50000000  1
  Zr  Zr10  1  0.09332000  0.50000000  0.92433000  1
  Zr  Zr11  1  0.59332000  0.07567000  0.50000000  1
  Cu  Cu12  1  0.50000000  0.50000000  0.89700000  1
  Cu  Cu13  1  0.00000000  0.10300000  0.50000000  1
  Cu  Cu14  1  0.50000000  0.50000000  0.10300000  1
  Cu  Cu15  1  0.00000000  0.89700000  0.50000000  1
  H  H16  1  0.90780000  0.24670000  0.89360000  1
  H  H17  1  0.76610000  0.37030000  0.84490000  1
  H  H18  1  0.67690000  0.50000000  0.91110000  1
  H  H19  1  0.40780000  0.10640000  0.24670000  1
  H  H20  1  0.26610000  0.15510000  0.37030000  1
  H  H21  1  0.17690000  0.08890000  0.50000000  1
  H  H22  1  0.90780000  0.75330000  0.10640000  1
  H  H23  1  0.76610000  0.62970000  0.15510000  1
  H  H24  1  0.67690000  0.50000000  0.08890000  1
  H  H25  1  0.40780000  0.89360000  0.75330000  1
  H  H26  1  0.26610000  0.84490000  0.62970000  1
  H  H27  1  0.17690000  0.91110000  0.50000000  1
  H  H28  1  0.09220000  0.24670000  0.10640000  1
  H  H29  1  0.23390000  0.37030000  0.15510000  1
  H  H30  1  0.32310000  0.50000000  0.08890000  1
  H  H31  1  0.59220000  0.89360000  0.24670000  1
  H  H32  1  0.73390000  0.84490000  0.37030000  1
  H  H33  1  0.82310000  0.91110000  0.50000000  1
  H  H34  1  0.09220000  0.75330000  0.89360000  1
  H  H35  1  0.23390000  0.62970000  0.84490000  1
  H  H36  1  0.32310000  0.50000000  0.91110000  1
  H  H37  1  0.59220000  0.10640000  0.75330000  1
  H  H38  1  0.73390000  0.15510000  0.62970000  1
  H  H39  1  0.82310000  0.08890000  0.50000000  1
  H  H40  1  0.09220000  0.75330000  0.10640000  1
  H  H41  1  0.23390000  0.62970000  0.15510000  1
  H  H42  1  0.59220000  0.89360000  0.75330000  1
  H  H43  1  0.73390000  0.84490000  0.62970000  1
  H  H44  1  0.09220000  0.24670000  0.89360000  1
  H  H45  1  0.23390000  0.37030000  0.84490000  1
  H  H46  1  0.59220000  0.10640000  0.24670000  1
  H  H47  1  0.73390000  0.15510000  0.37030000  1
  H  H48  1  0.90780000  0.75330000  0.89360000  1
  H  H49  1  0.76610000  0.62970000  0.84490000  1
  H  H50  1  0.40780000  0.10640000  0.75330000  1
  H  H51  1  0.26610000  0.15510000  0.62970000  1
  H  H52  1  0.90780000  0.24670000  0.10640000  1
  H  H53  1  0.76610000  0.37030000  0.15510000  1
  H  H54  1  0.40780000  0.89360000  0.24670000  1
  H  H55  1  0.26610000  0.84490000  0.37030000  1
  C  C56  1  0.88140000  0.35840000  0.90900000  1
  C  C57  1  0.84260000  0.31490000  0.87430000  1
  C  C58  1  0.86650000  0.25770000  0.87240000  1
  C  C59  1  0.78230000  0.33120000  0.84350000  1
  C  C60  1  0.82960000  0.21640000  0.83930000  1
  C  C61  1  0.74540000  0.29010000  0.81050000  1
  C  C62  1  0.76930000  0.23270000  0.80850000  1
  C  C63  1  0.85710000  0.15530000  0.83820000  1
  C  C64  1  0.68070000  0.30920000  0.77750000  1
  C  C65  1  0.65130000  0.50000000  0.94690000  1
  C  C66  1  0.57740000  0.50000000  0.05240000  1
  C  C67  1  0.54000000  0.50000000  0.00000000  1
  C  C68  1  0.68830000  0.50000000  0.00000000  1
  C  C69  1  0.76860000  0.50000000  0.00000000  1
  C  C70  1  0.38140000  0.09100000  0.35840000  1
  C  C71  1  0.34260000  0.12570000  0.31490000  1
  C  C72  1  0.36650000  0.12760000  0.25770000  1
  C  C73  1  0.28230000  0.15650000  0.33120000  1
  C  C74  1  0.32960000  0.16070000  0.21640000  1
  C  C75  1  0.24540000  0.18950000  0.29010000  1
  C  C76  1  0.26930000  0.19150000  0.23270000  1
  C  C77  1  0.35710000  0.16180000  0.15530000  1
  C  C78  1  0.18070000  0.22250000  0.30920000  1
  C  C79  1  0.15130000  0.05310000  0.50000000  1
  C  C80  1  0.07740000  0.94760000  0.50000000  1
  C  C81  1  0.04000000  1.00000000  0.50000000  1
  C  C82  1  0.18830000  1.00000000  0.50000000  1
  C  C83  1  0.26860000  1.00000000  0.50000000  1
  C  C84  1  0.88140000  0.64160000  0.09100000  1
  C  C85  1  0.84260000  0.68510000  0.12570000  1
  C  C86  1  0.86650000  0.74230000  0.12760000  1
  C  C87  1  0.78230000  0.66880000  0.15650000  1
  C  C88  1  0.82960000  0.78360000  0.16070000  1
  C  C89  1  0.74540000  0.70990000  0.18950000  1
  C  C90  1  0.76930000  0.76730000  0.19150000  1
  C  C91  1  0.85710000  0.84470000  0.16180000  1
  C  C92  1  0.68070000  0.69080000  0.22250000  1
  C  C93  1  0.65130000  0.50000000  0.05310000  1
  C  C94  1  0.38140000  0.90900000  0.64160000  1
  C  C95  1  0.34260000  0.87430000  0.68510000  1
  C  C96  1  0.36650000  0.87240000  0.74230000  1
  C  C97  1  0.28230000  0.84350000  0.66880000  1
  C  C98  1  0.32960000  0.83930000  0.78360000  1
  C  C99  1  0.24540000  0.81050000  0.70990000  1
  C  C100  1  0.26930000  0.80850000  0.76730000  1
  C  C101  1  0.35710000  0.83820000  0.84470000  1
  C  C102  1  0.18070000  0.77750000  0.69080000  1
  C  C103  1  0.15130000  0.94690000  0.50000000  1
  C  C104  1  0.11860000  0.35840000  0.09100000  1
  C  C105  1  0.15740000  0.31490000  0.12570000  1
  C  C106  1  0.13350000  0.25770000  0.12760000  1
  C  C107  1  0.21770000  0.33120000  0.15650000  1
  C  C108  1  0.17040000  0.21640000  0.16070000  1
  C  C109  1  0.25460000  0.29010000  0.18950000  1
  C  C110  1  0.23070000  0.23270000  0.19150000  1
  C  C111  1  0.14290000  0.15530000  0.16180000  1
  C  C112  1  0.31930000  0.30920000  0.22250000  1
  C  C113  1  0.34870000  0.50000000  0.05310000  1
  C  C114  1  0.42260000  0.50000000  0.94760000  1
  C  C115  1  0.46000000  0.50000000  0.00000000  1
  C  C116  1  0.31170000  0.50000000  0.00000000  1
  C  C117  1  0.23140000  0.50000000  0.00000000  1
  C  C118  1  0.61860000  0.90900000  0.35840000  1
  C  C119  1  0.65740000  0.87430000  0.31490000  1
  C  C120  1  0.63350000  0.87240000  0.25770000  1
  C  C121  1  0.71770000  0.84350000  0.33120000  1
  C  C122  1  0.67040000  0.83930000  0.21640000  1
  C  C123  1  0.75460000  0.81050000  0.29010000  1
  C  C124  1  0.73070000  0.80850000  0.23270000  1
  C  C125  1  0.64290000  0.83820000  0.15530000  1
  C  C126  1  0.81930000  0.77750000  0.30920000  1
  C  C127  1  0.84870000  0.94690000  0.50000000  1
  C  C128  1  0.92260000  0.05240000  0.50000000  1
  C  C129  1  0.96000000  1.00000000  0.50000000  1
  C  C130  1  0.81170000  1.00000000  0.50000000  1
  C  C131  1  0.73140000  1.00000000  0.50000000  1
  C  C132  1  0.11860000  0.64160000  0.90900000  1
  C  C133  1  0.15740000  0.68510000  0.87430000  1
  C  C134  1  0.13350000  0.74230000  0.87240000  1
  C  C135  1  0.21770000  0.66880000  0.84350000  1
  C  C136  1  0.17040000  0.78360000  0.83930000  1
  C  C137  1  0.25460000  0.70990000  0.81050000  1
  C  C138  1  0.23070000  0.76730000  0.80850000  1
  C  C139  1  0.14290000  0.84470000  0.83820000  1
  C  C140  1  0.31930000  0.69080000  0.77750000  1
  C  C141  1  0.34870000  0.50000000  0.94690000  1
  C  C142  1  0.61860000  0.09100000  0.64160000  1
  C  C143  1  0.65740000  0.12570000  0.68510000  1
  C  C144  1  0.63350000  0.12760000  0.74230000  1
  C  C145  1  0.71770000  0.15650000  0.66880000  1
  C  C146  1  0.67040000  0.16070000  0.78360000  1
  C  C147  1  0.75460000  0.18950000  0.70990000  1
  C  C148  1  0.73070000  0.19150000  0.76730000  1
  C  C149  1  0.64290000  0.16180000  0.84470000  1
  C  C150  1  0.81930000  0.22250000  0.69080000  1
  C  C151  1  0.84870000  0.05310000  0.50000000  1
  C  C152  1  0.11860000  0.64160000  0.09100000  1
  C  C153  1  0.15740000  0.68510000  0.12570000  1
  C  C154  1  0.13350000  0.74230000  0.12760000  1
  C  C155  1  0.21770000  0.66880000  0.15650000  1
  C  C156  1  0.17040000  0.78360000  0.16070000  1
  C  C157  1  0.25460000  0.70990000  0.18950000  1
  C  C158  1  0.23070000  0.76730000  0.19150000  1
  C  C159  1  0.14290000  0.84470000  0.16180000  1
  C  C160  1  0.31930000  0.69080000  0.22250000  1
  C  C161  1  0.61860000  0.90900000  0.64160000  1
  C  C162  1  0.65740000  0.87430000  0.68510000  1
  C  C163  1  0.63350000  0.87240000  0.74230000  1
  C  C164  1  0.71770000  0.84350000  0.66880000  1
  C  C165  1  0.67040000  0.83930000  0.78360000  1
  C  C166  1  0.75460000  0.81050000  0.70990000  1
  C  C167  1  0.73070000  0.80850000  0.76730000  1
  C  C168  1  0.64290000  0.83820000  0.84470000  1
  C  C169  1  0.81930000  0.77750000  0.69080000  1
  C  C170  1  0.11860000  0.35840000  0.90900000  1
  C  C171  1  0.15740000  0.31490000  0.87430000  1
  C  C172  1  0.13350000  0.25770000  0.87240000  1
  C  C173  1  0.21770000  0.33120000  0.84350000  1
  C  C174  1  0.17040000  0.21640000  0.83930000  1
  C  C175  1  0.25460000  0.29010000  0.81050000  1
  C  C176  1  0.23070000  0.23270000  0.80850000  1
  C  C177  1  0.14290000  0.15530000  0.83820000  1
  C  C178  1  0.31930000  0.30920000  0.77750000  1
  C  C179  1  0.61860000  0.09100000  0.35840000  1
  C  C180  1  0.65740000  0.12570000  0.31490000  1
  C  C181  1  0.63350000  0.12760000  0.25770000  1
  C  C182  1  0.71770000  0.15650000  0.33120000  1
  C  C183  1  0.67040000  0.16070000  0.21640000  1
  C  C184  1  0.75460000  0.18950000  0.29010000  1
  C  C185  1  0.73070000  0.19150000  0.23270000  1
  C  C186  1  0.64290000  0.16180000  0.15530000  1
  C  C187  1  0.81930000  0.22250000  0.30920000  1
  C  C188  1  0.88140000  0.64160000  0.90900000  1
  C  C189  1  0.84260000  0.68510000  0.87430000  1
  C  C190  1  0.86650000  0.74230000  0.87240000  1
  C  C191  1  0.78230000  0.66880000  0.84350000  1
  C  C192  1  0.82960000  0.78360000  0.83930000  1
  C  C193  1  0.74540000  0.70990000  0.81050000  1
  C  C194  1  0.76930000  0.76730000  0.80850000  1
  C  C195  1  0.85710000  0.84470000  0.83820000  1
  C  C196  1  0.68070000  0.69080000  0.77750000  1
  C  C197  1  0.38140000  0.09100000  0.64160000  1
  C  C198  1  0.34260000  0.12570000  0.68510000  1
  C  C199  1  0.36650000  0.12760000  0.74230000  1
  C  C200  1  0.28230000  0.15650000  0.66880000  1
  C  C201  1  0.32960000  0.16070000  0.78360000  1
  C  C202  1  0.24540000  0.18950000  0.70990000  1
  C  C203  1  0.26930000  0.19150000  0.76730000  1
  C  C204  1  0.35710000  0.16180000  0.84470000  1
  C  C205  1  0.18070000  0.22250000  0.69080000  1
  C  C206  1  0.88140000  0.35840000  0.09100000  1
  C  C207  1  0.84260000  0.31490000  0.12570000  1
  C  C208  1  0.86650000  0.25770000  0.12760000  1
  C  C209  1  0.78230000  0.33120000  0.15650000  1
  C  C210  1  0.82960000  0.21640000  0.16070000  1
  C  C211  1  0.74540000  0.29010000  0.18950000  1
  C  C212  1  0.76930000  0.23270000  0.19150000  1
  C  C213  1  0.85710000  0.15530000  0.16180000  1
  C  C214  1  0.68070000  0.30920000  0.22250000  1
  C  C215  1  0.38140000  0.90900000  0.35840000  1
  C  C216  1  0.34260000  0.87430000  0.31490000  1
  C  C217  1  0.36650000  0.87240000  0.25770000  1
  C  C218  1  0.28230000  0.84350000  0.33120000  1
  C  C219  1  0.32960000  0.83930000  0.21640000  1
  C  C220  1  0.24540000  0.81050000  0.29010000  1
  C  C221  1  0.26930000  0.80850000  0.23270000  1
  C  C222  1  0.35710000  0.83820000  0.15530000  1
  C  C223  1  0.18070000  0.77750000  0.30920000  1
  I  I224  1  0.50000000  0.40100000  0.84210000  1
  I  I225  1  0.00000000  0.15790000  0.40100000  1
  I  I226  1  0.50000000  0.59900000  0.15790000  1
  I  I227  1  0.00000000  0.84210000  0.59900000  1
  I  I228  1  0.50000000  0.40100000  0.15790000  1
  I  I229  1  0.00000000  0.84210000  0.40100000  1
  I  I230  1  0.50000000  0.59900000  0.84210000  1
  I  I231  1  0.00000000  0.15790000  0.59900000  1
  N  N232  1  0.57740000  0.50000000  0.94760000  1
  N  N233  1  0.07740000  0.05240000  0.50000000  1
  N  N234  1  0.42260000  0.50000000  0.05240000  1
  N  N235  1  0.92260000  0.94760000  0.50000000  1
  O  O236  1  0.86710000  0.41240000  0.89560000  1
  O  O237  1  0.92730000  0.34130000  0.94240000  1
  O  O238  1  0.78980000  0.50000000  0.94360000  1
  O  O239  1  0.90600000  0.44630000  0.00000000  1
  O  O240  1  0.00000000  0.55410000  0.92210000  1
  O  O241  1  0.36710000  0.10440000  0.41240000  1
  O  O242  1  0.42730000  0.05760000  0.34130000  1
  O  O243  1  0.28980000  0.05640000  0.50000000  1
  O  O244  1  0.40600000  1.00000000  0.44630000  1
  O  O245  1  0.50000000  0.07790000  0.55410000  1
  O  O246  1  0.86710000  0.58760000  0.10440000  1
  O  O247  1  0.92730000  0.65870000  0.05760000  1
  O  O248  1  0.78980000  0.50000000  0.05640000  1
  O  O249  1  0.90600000  0.55370000  0.00000000  1
  O  O250  1  0.00000000  0.44590000  0.07790000  1
  O  O251  1  0.36710000  0.89560000  0.58760000  1
  O  O252  1  0.42730000  0.94240000  0.65870000  1
  O  O253  1  0.28980000  0.94360000  0.50000000  1
  O  O254  1  0.40600000  1.00000000  0.55370000  1
  O  O255  1  0.50000000  0.92210000  0.44590000  1
  O  O256  1  0.13290000  0.41240000  0.10440000  1
  O  O257  1  0.07270000  0.34130000  0.05760000  1
  O  O258  1  0.21020000  0.50000000  0.05640000  1
  O  O259  1  0.09400000  0.44630000  0.00000000  1
  O  O260  1  0.00000000  0.55410000  0.07790000  1
  O  O261  1  0.63290000  0.89560000  0.41240000  1
  O  O262  1  0.57270000  0.94240000  0.34130000  1
  O  O263  1  0.71020000  0.94360000  0.50000000  1
  O  O264  1  0.59400000  1.00000000  0.44630000  1
  O  O265  1  0.50000000  0.92210000  0.55410000  1
  O  O266  1  0.13290000  0.58760000  0.89560000  1
  O  O267  1  0.07270000  0.65870000  0.94240000  1
  O  O268  1  0.21020000  0.50000000  0.94360000  1
  O  O269  1  0.09400000  0.55370000  0.00000000  1
  O  O270  1  0.00000000  0.44590000  0.92210000  1
  O  O271  1  0.63290000  0.10440000  0.58760000  1
  O  O272  1  0.57270000  0.05760000  0.65870000  1
  O  O273  1  0.71020000  0.05640000  0.50000000  1
  O  O274  1  0.59400000  1.00000000  0.55370000  1
  O  O275  1  0.50000000  0.07790000  0.44590000  1
  O  O276  1  0.13290000  0.58760000  0.10440000  1
  O  O277  1  0.07270000  0.65870000  0.05760000  1
  O  O278  1  0.63290000  0.89560000  0.58760000  1
  O  O279  1  0.57270000  0.94240000  0.65870000  1
  O  O280  1  0.13290000  0.41240000  0.89560000  1
  O  O281  1  0.07270000  0.34130000  0.94240000  1
  O  O282  1  0.63290000  0.10440000  0.41240000  1
  O  O283  1  0.57270000  0.05760000  0.34130000  1
  O  O284  1  0.86710000  0.58760000  0.89560000  1
  O  O285  1  0.92730000  0.65870000  0.94240000  1
  O  O286  1  0.36710000  0.10440000  0.58760000  1
  O  O287  1  0.42730000  0.05760000  0.65870000  1
  O  O288  1  0.86710000  0.41240000  0.10440000  1
  O  O289  1  0.92730000  0.34130000  0.05760000  1
  O  O290  1  0.36710000  0.89560000  0.41240000  1
  O  O291  1  0.42730000  0.94240000  0.34130000  1
  F  F292  1  0.88660000  0.14200000  0.78690000  1
  F  F293  1  0.80780000  0.11530000  0.84730000  1
  F  F294  1  0.90760000  0.14660000  0.87800000  1
  F  F295  1  0.65590000  0.36030000  0.79630000  1
  F  F296  1  0.69460000  0.31680000  0.72100000  1
  F  F297  1  0.62730000  0.27210000  0.78110000  1
  F  F298  1  0.38660000  0.21310000  0.14200000  1
  F  F299  1  0.30780000  0.15270000  0.11530000  1
  F  F300  1  0.40760000  0.12200000  0.14660000  1
  F  F301  1  0.15590000  0.20370000  0.36030000  1
  F  F302  1  0.19460000  0.27900000  0.31680000  1
  F  F303  1  0.12730000  0.21890000  0.27210000  1
  F  F304  1  0.88660000  0.85800000  0.21310000  1
  F  F305  1  0.80780000  0.88470000  0.15270000  1
  F  F306  1  0.90760000  0.85340000  0.12200000  1
  F  F307  1  0.65590000  0.63970000  0.20370000  1
  F  F308  1  0.69460000  0.68320000  0.27900000  1
  F  F309  1  0.62730000  0.72790000  0.21890000  1
  F  F310  1  0.38660000  0.78690000  0.85800000  1
  F  F311  1  0.30780000  0.84730000  0.88470000  1
  F  F312  1  0.40760000  0.87800000  0.85340000  1
  F  F313  1  0.15590000  0.79630000  0.63970000  1
  F  F314  1  0.19460000  0.72100000  0.68320000  1
  F  F315  1  0.12730000  0.78110000  0.72790000  1
  F  F316  1  0.11340000  0.14200000  0.21310000  1
  F  F317  1  0.19220000  0.11530000  0.15270000  1
  F  F318  1  0.09240000  0.14660000  0.12200000  1
  F  F319  1  0.34410000  0.36030000  0.20370000  1
  F  F320  1  0.30540000  0.31680000  0.27900000  1
  F  F321  1  0.37270000  0.27210000  0.21890000  1
  F  F322  1  0.61340000  0.78690000  0.14200000  1
  F  F323  1  0.69220000  0.84730000  0.11530000  1
  F  F324  1  0.59240000  0.87800000  0.14660000  1
  F  F325  1  0.84410000  0.79630000  0.36030000  1
  F  F326  1  0.80540000  0.72100000  0.31680000  1
  F  F327  1  0.87270000  0.78110000  0.27210000  1
  F  F328  1  0.11340000  0.85800000  0.78690000  1
  F  F329  1  0.19220000  0.88470000  0.84730000  1
  F  F330  1  0.09240000  0.85340000  0.87800000  1
  F  F331  1  0.34410000  0.63970000  0.79630000  1
  F  F332  1  0.30540000  0.68320000  0.72100000  1
  F  F333  1  0.37270000  0.72790000  0.78110000  1
  F  F334  1  0.61340000  0.21310000  0.85800000  1
  F  F335  1  0.69220000  0.15270000  0.88470000  1
  F  F336  1  0.59240000  0.12200000  0.85340000  1
  F  F337  1  0.84410000  0.20370000  0.63970000  1
  F  F338  1  0.80540000  0.27900000  0.68320000  1
  F  F339  1  0.87270000  0.21890000  0.72790000  1
  F  F340  1  0.11340000  0.85800000  0.21310000  1
  F  F341  1  0.19220000  0.88470000  0.15270000  1
  F  F342  1  0.09240000  0.85340000  0.12200000  1
  F  F343  1  0.34410000  0.63970000  0.20370000  1
  F  F344  1  0.30540000  0.68320000  0.27900000  1
  F  F345  1  0.37270000  0.72790000  0.21890000  1
  F  F346  1  0.61340000  0.78690000  0.85800000  1
  F  F347  1  0.69220000  0.84730000  0.88470000  1
  F  F348  1  0.59240000  0.87800000  0.85340000  1
  F  F349  1  0.84410000  0.79630000  0.63970000  1
  F  F350  1  0.80540000  0.72100000  0.68320000  1
  F  F351  1  0.87270000  0.78110000  0.72790000  1
  F  F352  1  0.11340000  0.14200000  0.78690000  1
  F  F353  1  0.19220000  0.11530000  0.84730000  1
  F  F354  1  0.09240000  0.14660000  0.87800000  1
  F  F355  1  0.34410000  0.36030000  0.79630000  1
  F  F356  1  0.30540000  0.31680000  0.72100000  1
  F  F357  1  0.37270000  0.27210000  0.78110000  1
  F  F358  1  0.61340000  0.21310000  0.14200000  1
  F  F359  1  0.69220000  0.15270000  0.11530000  1
  F  F360  1  0.59240000  0.12200000  0.14660000  1
  F  F361  1  0.84410000  0.20370000  0.36030000  1
  F  F362  1  0.80540000  0.27900000  0.31680000  1
  F  F363  1  0.87270000  0.21890000  0.27210000  1
  F  F364  1  0.88660000  0.85800000  0.78690000  1
  F  F365  1  0.80780000  0.88470000  0.84730000  1
  F  F366  1  0.90760000  0.85340000  0.87800000  1
  F  F367  1  0.65590000  0.63970000  0.79630000  1
  F  F368  1  0.69460000  0.68320000  0.72100000  1
  F  F369  1  0.62730000  0.72790000  0.78110000  1
  F  F370  1  0.38660000  0.21310000  0.85800000  1
  F  F371  1  0.30780000  0.15270000  0.88470000  1
  F  F372  1  0.40760000  0.12200000  0.85340000  1
  F  F373  1  0.15590000  0.20370000  0.63970000  1
  F  F374  1  0.19460000  0.27900000  0.68320000  1
  F  F375  1  0.12730000  0.21890000  0.72790000  1
  F  F376  1  0.88660000  0.14200000  0.21310000  1
  F  F377  1  0.80780000  0.11530000  0.15270000  1
  F  F378  1  0.90760000  0.14660000  0.12200000  1
  F  F379  1  0.65590000  0.36030000  0.20370000  1
  F  F380  1  0.69460000  0.31680000  0.27900000  1
  F  F381  1  0.62730000  0.27210000  0.21890000  1
  F  F382  1  0.38660000  0.78690000  0.14200000  1
  F  F383  1  0.30780000  0.84730000  0.11530000  1
  F  F384  1  0.40760000  0.87800000  0.14660000  1
  F  F385  1  0.15590000  0.79630000  0.36030000  1
  F  F386  1  0.19460000  0.72100000  0.31680000  1
  F  F387  1  0.12730000  0.78110000  0.27210000  1
