# generated using pymatgen
data_Zr3Zn3H78C138(N3O4)4
_symmetry_space_group_name_H-M   'P 1'
_cell_length_a   27.40604463
_cell_length_b   27.40604463
_cell_length_c   27.40604463
_cell_angle_alpha   60.00000000
_cell_angle_beta   60.00000000
_cell_angle_gamma   60.00000000
_symmetry_Int_Tables_number   1
_chemical_formula_structural   Zr3Zn3H78C138(N3O4)4
_chemical_formula_sum   'Zr6 Zn6 H156 C276 N24 O32'
_cell_volume   14555.39795388
_cell_formula_units_Z   2
loop_
 _symmetry_equiv_pos_site_id
 _symmetry_equiv_pos_as_xyz
  1  'x, y, z'
loop_
 _atom_site_type_symbol
 _atom_site_label
 _atom_site_symmetry_multiplicity
 _atom_site_fract_x
 _atom_site_fract_y
 _atom_site_fract_z
 _atom_site_occupancy
  C  C0  1  0.30852000  0.40462000  0.14343000  1
  C  C1  1  0.27102000  0.36778000  0.18060000  1
  C  C2  1  0.14343000  0.14343000  0.40462000  1
  C  C3  1  0.18060000  0.18060000  0.36778000  1
  C  C4  1  0.14343000  0.14343000  0.30852000  1
  C  C5  1  0.18060000  0.18060000  0.27102000  1
  C  C6  1  0.40462000  0.30852000  0.14343000  1
  C  C7  1  0.36778000  0.27102000  0.18060000  1
  C  C8  1  0.40462000  0.14343000  0.30852000  1
  C  C9  1  0.30062000  0.19938000  0.30062000  1
  C  C10  1  0.36778000  0.18060000  0.27102000  1
  C  C11  1  0.14343000  0.40462000  0.14343000  1
  C  C12  1  0.19938000  0.30062000  0.19938000  1
  C  C13  1  0.18060000  0.36778000  0.18060000  1
  C  C14  1  0.14343000  0.30852000  0.14343000  1
  C  C15  1  0.18060000  0.27102000  0.18060000  1
  C  C16  1  0.30852000  0.14343000  0.40462000  1
  C  C17  1  0.27102000  0.18060000  0.36778000  1
  C  C18  1  0.14343000  0.30852000  0.40462000  1
  C  C19  1  0.18060000  0.27102000  0.36778000  1
  C  C20  1  0.40462000  0.14343000  0.14343000  1
  C  C21  1  0.36778000  0.18060000  0.18060000  1
  C  C22  1  0.30852000  0.14343000  0.14343000  1
  C  C23  1  0.27102000  0.18060000  0.18060000  1
  C  C24  1  0.14343000  0.40462000  0.30852000  1
  C  C25  1  0.18060000  0.36778000  0.27102000  1
  C  C26  1  0.85657000  0.59538000  0.85657000  1
  C  C27  1  0.81940000  0.63222000  0.81940000  1
  C  C28  1  0.69148000  0.85657000  0.59538000  1
  C  C29  1  0.72898000  0.81940000  0.63222000  1
  C  C30  1  0.59538000  0.85657000  0.69148000  1
  C  C31  1  0.63222000  0.81940000  0.72898000  1
  C  C32  1  0.85657000  0.69148000  0.85657000  1
  C  C33  1  0.81940000  0.72898000  0.81940000  1
  C  C34  1  0.85657000  0.85657000  0.69148000  1
  C  C35  1  0.80062000  0.80062000  0.69938000  1
  C  C36  1  0.81940000  0.81940000  0.72898000  1
  C  C37  1  0.69148000  0.59538000  0.85657000  1
  C  C38  1  0.69938000  0.69938000  0.80062000  1
  C  C39  1  0.72898000  0.63222000  0.81940000  1
  C  C40  1  0.59538000  0.69148000  0.85657000  1
  C  C41  1  0.63222000  0.72898000  0.81940000  1
  C  C42  1  0.85657000  0.85657000  0.59538000  1
  C  C43  1  0.81940000  0.81940000  0.63222000  1
  C  C44  1  0.85657000  0.69148000  0.59538000  1
  C  C45  1  0.80062000  0.69938000  0.69938000  1
  C  C46  1  0.81940000  0.72898000  0.63222000  1
  C  C47  1  0.69148000  0.85657000  0.85657000  1
  C  C48  1  0.69938000  0.80062000  0.80062000  1
  C  C49  1  0.72898000  0.81940000  0.81940000  1
  C  C50  1  0.59538000  0.85657000  0.85657000  1
  C  C51  1  0.63222000  0.81940000  0.81940000  1
  C  C52  1  0.85657000  0.59538000  0.69148000  1
  C  C53  1  0.81940000  0.63222000  0.72898000  1
  C  C54  1  0.69938000  0.80062000  0.69938000  1
  C  C55  1  0.80062000  0.69938000  0.80062000  1
  C  C56  1  0.19938000  0.19938000  0.30062000  1
  C  C57  1  0.30062000  0.30062000  0.19938000  1
  C  C58  1  0.19938000  0.30062000  0.30062000  1
  C  C59  1  0.30062000  0.19938000  0.19938000  1
  C  C60  1  0.50000000  0.50000000  0.12780000  1
  C  C61  1  0.50000000  0.50000000  0.33556000  1
  C  C62  1  0.50000000  0.50000000  0.28280000  1
  C  C63  1  0.50000000  0.50000000  0.18020000  1
  C  C64  1  0.87220000  0.12780000  0.50000000  1
  C  C65  1  0.66444000  0.33556000  0.50000000  1
  C  C66  1  0.71720000  0.28280000  0.50000000  1
  C  C67  1  0.81980000  0.18020000  0.50000000  1
  C  C68  1  0.12780000  0.87220000  0.50000000  1
  C  C69  1  0.33556000  0.66444000  0.50000000  1
  C  C70  1  0.28280000  0.71720000  0.50000000  1
  C  C71  1  0.18020000  0.81980000  0.50000000  1
  C  C72  1  0.50000000  0.50000000  0.87220000  1
  C  C73  1  0.50000000  0.50000000  0.66444000  1
  C  C74  1  0.50000000  0.50000000  0.71720000  1
  C  C75  1  0.50000000  0.50000000  0.81980000  1
  C  C76  1  0.50000000  0.12780000  0.50000000  1
  C  C77  1  0.50000000  0.33556000  0.50000000  1
  C  C78  1  0.50000000  0.28280000  0.50000000  1
  C  C79  1  0.50000000  0.18020000  0.50000000  1
  C  C80  1  0.12780000  0.50000000  0.87220000  1
  C  C81  1  0.33556000  0.50000000  0.66444000  1
  C  C82  1  0.28280000  0.50000000  0.71720000  1
  C  C83  1  0.18020000  0.50000000  0.81980000  1
  C  C84  1  0.87220000  0.50000000  0.12780000  1
  C  C85  1  0.66444000  0.50000000  0.33556000  1
  C  C86  1  0.71720000  0.50000000  0.28280000  1
  C  C87  1  0.81980000  0.50000000  0.18020000  1
  C  C88  1  0.50000000  0.87220000  0.50000000  1
  C  C89  1  0.50000000  0.66444000  0.50000000  1
  C  C90  1  0.50000000  0.71720000  0.50000000  1
  C  C91  1  0.50000000  0.81980000  0.50000000  1
  C  C92  1  0.12780000  0.50000000  0.50000000  1
  C  C93  1  0.33556000  0.50000000  0.50000000  1
  C  C94  1  0.28280000  0.50000000  0.50000000  1
  C  C95  1  0.18020000  0.50000000  0.50000000  1
  C  C96  1  0.50000000  0.87220000  0.12780000  1
  C  C97  1  0.50000000  0.66444000  0.33556000  1
  C  C98  1  0.50000000  0.71720000  0.28280000  1
  C  C99  1  0.50000000  0.81980000  0.18020000  1
  C  C100  1  0.50000000  0.12780000  0.87220000  1
  C  C101  1  0.50000000  0.33556000  0.66444000  1
  C  C102  1  0.50000000  0.28280000  0.71720000  1
  C  C103  1  0.50000000  0.18020000  0.81980000  1
  C  C104  1  0.87220000  0.50000000  0.50000000  1
  C  C105  1  0.66444000  0.50000000  0.50000000  1
  C  C106  1  0.71720000  0.50000000  0.50000000  1
  C  C107  1  0.81980000  0.50000000  0.50000000  1
  C  C108  1  0.46800000  0.46800000  0.13740000  1
  C  C109  1  0.43574000  0.43574000  0.19216000  1
  C  C110  1  0.41060000  0.41060000  0.17394000  1
  C  C111  1  0.43270000  0.43270000  0.11170000  1
  C  C112  1  0.92660000  0.13740000  0.46800000  1
  C  C113  1  0.93636000  0.19216000  0.43574000  1
  C  C114  1  0.00486000  0.17394000  0.41060000  1
  C  C115  1  0.02290000  0.11170000  0.43270000  1
  C  C116  1  0.13740000  0.92660000  0.46800000  1
  C  C117  1  0.19216000  0.93636000  0.43574000  1
  C  C118  1  0.17394000  0.00486000  0.41060000  1
  C  C119  1  0.11170000  0.02290000  0.43270000  1
  C  C120  1  0.46800000  0.46800000  0.92660000  1
  C  C121  1  0.43574000  0.43574000  0.93636000  1
  C  C122  1  0.41060000  0.41060000  0.00486000  1
  C  C123  1  0.43270000  0.43270000  0.02290000  1
  C  C124  1  0.46800000  0.13740000  0.46800000  1
  C  C125  1  0.43574000  0.19216000  0.43574000  1
  C  C126  1  0.41060000  0.17394000  0.41060000  1
  C  C127  1  0.43270000  0.11170000  0.43270000  1
  C  C128  1  0.13740000  0.46800000  0.92660000  1
  C  C129  1  0.19216000  0.43574000  0.93636000  1
  C  C130  1  0.17394000  0.41060000  0.00486000  1
  C  C131  1  0.11170000  0.43270000  0.02290000  1
  C  C132  1  0.92660000  0.46800000  0.13740000  1
  C  C133  1  0.93636000  0.43574000  0.19216000  1
  C  C134  1  0.00486000  0.41060000  0.17394000  1
  C  C135  1  0.02290000  0.43270000  0.11170000  1
  C  C136  1  0.46800000  0.92660000  0.46800000  1
  C  C137  1  0.43574000  0.93636000  0.43574000  1
  C  C138  1  0.41060000  0.00486000  0.41060000  1
  C  C139  1  0.43270000  0.02290000  0.43270000  1
  C  C140  1  0.13740000  0.46800000  0.46800000  1
  C  C141  1  0.19216000  0.43574000  0.43574000  1
  C  C142  1  0.17394000  0.41060000  0.41060000  1
  C  C143  1  0.11170000  0.43270000  0.43270000  1
  C  C144  1  0.46800000  0.92660000  0.13740000  1
  C  C145  1  0.43574000  0.93636000  0.19216000  1
  C  C146  1  0.41060000  0.00486000  0.17394000  1
  C  C147  1  0.43270000  0.02290000  0.11170000  1
  C  C148  1  0.46800000  0.13740000  0.92660000  1
  C  C149  1  0.43574000  0.19216000  0.93636000  1
  C  C150  1  0.41060000  0.17394000  0.00486000  1
  C  C151  1  0.43270000  0.11170000  0.02290000  1
  C  C152  1  0.92660000  0.46800000  0.46800000  1
  C  C153  1  0.93636000  0.43574000  0.43574000  1
  C  C154  1  0.00486000  0.41060000  0.41060000  1
  C  C155  1  0.02290000  0.43270000  0.43270000  1
  C  C156  1  0.07340000  0.53200000  0.86260000  1
  C  C157  1  0.06364000  0.56426000  0.80784000  1
  C  C158  1  0.99514000  0.58940000  0.82606000  1
  C  C159  1  0.97710000  0.56730000  0.88830000  1
  C  C160  1  0.53200000  0.86260000  0.53200000  1
  C  C161  1  0.56426000  0.80784000  0.56426000  1
  C  C162  1  0.58940000  0.82606000  0.58940000  1
  C  C163  1  0.56730000  0.88830000  0.56730000  1
  C  C164  1  0.53200000  0.07340000  0.53200000  1
  C  C165  1  0.56426000  0.06364000  0.56426000  1
  C  C166  1  0.58940000  0.99514000  0.58940000  1
  C  C167  1  0.56730000  0.97710000  0.56730000  1
  C  C168  1  0.86260000  0.53200000  0.07340000  1
  C  C169  1  0.80784000  0.56426000  0.06364000  1
  C  C170  1  0.82606000  0.58940000  0.99514000  1
  C  C171  1  0.88830000  0.56730000  0.97710000  1
  C  C172  1  0.07340000  0.86260000  0.53200000  1
  C  C173  1  0.06364000  0.80784000  0.56426000  1
  C  C174  1  0.99514000  0.82606000  0.58940000  1
  C  C175  1  0.97710000  0.88830000  0.56730000  1
  C  C176  1  0.53200000  0.53200000  0.07340000  1
  C  C177  1  0.56426000  0.56426000  0.06364000  1
  C  C178  1  0.58940000  0.58940000  0.99514000  1
  C  C179  1  0.56730000  0.56730000  0.97710000  1
  C  C180  1  0.53200000  0.53200000  0.86260000  1
  C  C181  1  0.56426000  0.56426000  0.80784000  1
  C  C182  1  0.58940000  0.58940000  0.82606000  1
  C  C183  1  0.56730000  0.56730000  0.88830000  1
  C  C184  1  0.86260000  0.07340000  0.53200000  1
  C  C185  1  0.80784000  0.06364000  0.56426000  1
  C  C186  1  0.82606000  0.99514000  0.58940000  1
  C  C187  1  0.88830000  0.97710000  0.56730000  1
  C  C188  1  0.07340000  0.53200000  0.53200000  1
  C  C189  1  0.06364000  0.56426000  0.56426000  1
  C  C190  1  0.99514000  0.58940000  0.58940000  1
  C  C191  1  0.97710000  0.56730000  0.56730000  1
  C  C192  1  0.53200000  0.07340000  0.86260000  1
  C  C193  1  0.56426000  0.06364000  0.80784000  1
  C  C194  1  0.58940000  0.99514000  0.82606000  1
  C  C195  1  0.56730000  0.97710000  0.88830000  1
  C  C196  1  0.53200000  0.86260000  0.07340000  1
  C  C197  1  0.56426000  0.80784000  0.06364000  1
  C  C198  1  0.58940000  0.82606000  0.99514000  1
  C  C199  1  0.56730000  0.88830000  0.97710000  1
  C  C200  1  0.86260000  0.53200000  0.53200000  1
  C  C201  1  0.80784000  0.56426000  0.56426000  1
  C  C202  1  0.82606000  0.58940000  0.58940000  1
  C  C203  1  0.88830000  0.56730000  0.56730000  1
  C  C204  1  0.41500000  0.41500000  0.08500000  1
  C  C205  1  0.37500000  0.37500000  0.12500000  1
  C  C206  1  0.08500000  0.08500000  0.41500000  1
  C  C207  1  0.12500000  0.12500000  0.37500000  1
  C  C208  1  0.41500000  0.08500000  0.41500000  1
  C  C209  1  0.37500000  0.12500000  0.37500000  1
  C  C210  1  0.08500000  0.41500000  0.08500000  1
  C  C211  1  0.12500000  0.37500000  0.12500000  1
  C  C212  1  0.08500000  0.41500000  0.41500000  1
  C  C213  1  0.12500000  0.37500000  0.37500000  1
  C  C214  1  0.41500000  0.08500000  0.08500000  1
  C  C215  1  0.37500000  0.12500000  0.12500000  1
  C  C216  1  0.91500000  0.58500000  0.91500000  1
  C  C217  1  0.87500000  0.62500000  0.87500000  1
  C  C218  1  0.58500000  0.91500000  0.58500000  1
  C  C219  1  0.62500000  0.87500000  0.62500000  1
  C  C220  1  0.91500000  0.91500000  0.58500000  1
  C  C221  1  0.87500000  0.87500000  0.62500000  1
  C  C222  1  0.58500000  0.58500000  0.91500000  1
  C  C223  1  0.62500000  0.62500000  0.87500000  1
  C  C224  1  0.91500000  0.58500000  0.58500000  1
  C  C225  1  0.87500000  0.62500000  0.62500000  1
  C  C226  1  0.58500000  0.91500000  0.91500000  1
  C  C227  1  0.62500000  0.87500000  0.87500000  1
  C  C228  1  0.45470000  0.54530000  0.25830000  1
  C  C229  1  0.45486000  0.54514000  0.20522000  1
  C  C230  1  0.74170000  0.25830000  0.54530000  1
  C  C231  1  0.79478000  0.20522000  0.54514000  1
  C  C232  1  0.25830000  0.74170000  0.45470000  1
  C  C233  1  0.20522000  0.79478000  0.45486000  1
  C  C234  1  0.54530000  0.45470000  0.74170000  1
  C  C235  1  0.54514000  0.45486000  0.79478000  1
  C  C236  1  0.54530000  0.25830000  0.45470000  1
  C  C237  1  0.54514000  0.20522000  0.45486000  1
  C  C238  1  0.25830000  0.54530000  0.74170000  1
  C  C239  1  0.20522000  0.54514000  0.79478000  1
  C  C240  1  0.74170000  0.45470000  0.25830000  1
  C  C241  1  0.79478000  0.45486000  0.20522000  1
  C  C242  1  0.45470000  0.74170000  0.54530000  1
  C  C243  1  0.45486000  0.79478000  0.54514000  1
  C  C244  1  0.25830000  0.45470000  0.54530000  1
  C  C245  1  0.20522000  0.45486000  0.54514000  1
  C  C246  1  0.54530000  0.74170000  0.25830000  1
  C  C247  1  0.54514000  0.79478000  0.20522000  1
  C  C248  1  0.45470000  0.25830000  0.74170000  1
  C  C249  1  0.45486000  0.20522000  0.79478000  1
  C  C250  1  0.74170000  0.54530000  0.45470000  1
  C  C251  1  0.79478000  0.54514000  0.45486000  1
  C  C252  1  0.25830000  0.45470000  0.74170000  1
  C  C253  1  0.20522000  0.45486000  0.79478000  1
  C  C254  1  0.54530000  0.74170000  0.45470000  1
  C  C255  1  0.54514000  0.79478000  0.45486000  1
  C  C256  1  0.45470000  0.25830000  0.54530000  1
  C  C257  1  0.45486000  0.20522000  0.54514000  1
  C  C258  1  0.74170000  0.54530000  0.25830000  1
  C  C259  1  0.79478000  0.54514000  0.20522000  1
  C  C260  1  0.25830000  0.74170000  0.54530000  1
  C  C261  1  0.20522000  0.79478000  0.54514000  1
  C  C262  1  0.54530000  0.45470000  0.25830000  1
  C  C263  1  0.54514000  0.45486000  0.20522000  1
  C  C264  1  0.45470000  0.54530000  0.74170000  1
  C  C265  1  0.45486000  0.54514000  0.79478000  1
  C  C266  1  0.74170000  0.25830000  0.45470000  1
  C  C267  1  0.79478000  0.20522000  0.45486000  1
  C  C268  1  0.25830000  0.54530000  0.45470000  1
  C  C269  1  0.20522000  0.54514000  0.45486000  1
  C  C270  1  0.54530000  0.25830000  0.74170000  1
  C  C271  1  0.54514000  0.20522000  0.79478000  1
  C  C272  1  0.45470000  0.74170000  0.25830000  1
  C  C273  1  0.45486000  0.79478000  0.20522000  1
  C  C274  1  0.74170000  0.45470000  0.54530000  1
  C  C275  1  0.79478000  0.45486000  0.54514000  1
  H  H276  1  0.41927000  0.58073000  0.28009000  1
  H  H277  1  0.41920000  0.58080000  0.18380000  1
  H  H278  1  0.71991000  0.28009000  0.58073000  1
  H  H279  1  0.81620000  0.18380000  0.58080000  1
  H  H280  1  0.28009000  0.71991000  0.41927000  1
  H  H281  1  0.18380000  0.81620000  0.41920000  1
  H  H282  1  0.58073000  0.41927000  0.71991000  1
  H  H283  1  0.58080000  0.41920000  0.81620000  1
  H  H284  1  0.58073000  0.28009000  0.41927000  1
  H  H285  1  0.58080000  0.18380000  0.41920000  1
  H  H286  1  0.28009000  0.58073000  0.71991000  1
  H  H287  1  0.18380000  0.58080000  0.81620000  1
  H  H288  1  0.71991000  0.41927000  0.28009000  1
  H  H289  1  0.81620000  0.41920000  0.18380000  1
  H  H290  1  0.41927000  0.71991000  0.58073000  1
  H  H291  1  0.41920000  0.81620000  0.58080000  1
  H  H292  1  0.28009000  0.41927000  0.58073000  1
  H  H293  1  0.18380000  0.41920000  0.58080000  1
  H  H294  1  0.58073000  0.71991000  0.28009000  1
  H  H295  1  0.58080000  0.81620000  0.18380000  1
  H  H296  1  0.41927000  0.28009000  0.71991000  1
  H  H297  1  0.41920000  0.18380000  0.81620000  1
  H  H298  1  0.71991000  0.58073000  0.41927000  1
  H  H299  1  0.81620000  0.58080000  0.41920000  1
  H  H300  1  0.28009000  0.41927000  0.71991000  1
  H  H301  1  0.18380000  0.41920000  0.81620000  1
  H  H302  1  0.58073000  0.71991000  0.41927000  1
  H  H303  1  0.58080000  0.81620000  0.41920000  1
  H  H304  1  0.41927000  0.28009000  0.58073000  1
  H  H305  1  0.41920000  0.18380000  0.58080000  1
  H  H306  1  0.71991000  0.58073000  0.28009000  1
  H  H307  1  0.81620000  0.58080000  0.18380000  1
  H  H308  1  0.28009000  0.71991000  0.58073000  1
  H  H309  1  0.18380000  0.81620000  0.58080000  1
  H  H310  1  0.58073000  0.41927000  0.28009000  1
  H  H311  1  0.58080000  0.41920000  0.18380000  1
  H  H312  1  0.41927000  0.58073000  0.71991000  1
  H  H313  1  0.41920000  0.58080000  0.81620000  1
  H  H314  1  0.71991000  0.28009000  0.41927000  1
  H  H315  1  0.81620000  0.18380000  0.41920000  1
  H  H316  1  0.28009000  0.58073000  0.41927000  1
  H  H317  1  0.18380000  0.58080000  0.41920000  1
  H  H318  1  0.58073000  0.28009000  0.71991000  1
  H  H319  1  0.58080000  0.18380000  0.81620000  1
  H  H320  1  0.41927000  0.71991000  0.28009000  1
  H  H321  1  0.41920000  0.81620000  0.18380000  1
  H  H322  1  0.71991000  0.41927000  0.58073000  1
  H  H323  1  0.81620000  0.41920000  0.58080000  1
  H  H324  1  0.28844000  0.45544000  0.12806000  1
  H  H325  1  0.22024500  0.38852500  0.19562500  1
  H  H326  1  0.12806000  0.12806000  0.45544000  1
  H  H327  1  0.19560500  0.19562500  0.38852500  1
  H  H328  1  0.12806000  0.12806000  0.28844000  1
  H  H329  1  0.19562500  0.19560500  0.22024500  1
  H  H330  1  0.45544000  0.28844000  0.12806000  1
  H  H331  1  0.38852500  0.22024500  0.19560500  1
  H  H332  1  0.45544000  0.12806000  0.28844000  1
  H  H333  1  0.27123000  0.22877000  0.27123000  1
  H  H334  1  0.38852500  0.19560500  0.22024500  1
  H  H335  1  0.12806000  0.45544000  0.12806000  1
  H  H336  1  0.22877000  0.27123000  0.22877000  1
  H  H337  1  0.19560500  0.38852500  0.19562500  1
  H  H338  1  0.12806000  0.28844000  0.12806000  1
  H  H339  1  0.19562500  0.22024500  0.19560500  1
  H  H340  1  0.28844000  0.12806000  0.45544000  1
  H  H341  1  0.22024500  0.19562500  0.38852500  1
  H  H342  1  0.12806000  0.28844000  0.45544000  1
  H  H343  1  0.19562500  0.22024500  0.38852500  1
  H  H344  1  0.45544000  0.12806000  0.12806000  1
  H  H345  1  0.38852500  0.19560500  0.19562500  1
  H  H346  1  0.28844000  0.12806000  0.12806000  1
  H  H347  1  0.22024500  0.19562500  0.19560500  1
  H  H348  1  0.12806000  0.45544000  0.28844000  1
  H  H349  1  0.19560500  0.38852500  0.22024500  1
  H  H350  1  0.87194000  0.54456000  0.87194000  1
  H  H351  1  0.80439500  0.61147500  0.80437500  1
  H  H352  1  0.71156000  0.87194000  0.54456000  1
  H  H353  1  0.77975500  0.80437500  0.61147500  1
  H  H354  1  0.54456000  0.87194000  0.71156000  1
  H  H355  1  0.61147500  0.80439500  0.77975500  1
  H  H356  1  0.87194000  0.71156000  0.87194000  1
  H  H357  1  0.80437500  0.77975500  0.80439500  1
  H  H358  1  0.87194000  0.87194000  0.71156000  1
  H  H359  1  0.77123000  0.77123000  0.72877000  1
  H  H360  1  0.80437500  0.80439500  0.77975500  1
  H  H361  1  0.71156000  0.54456000  0.87194000  1
  H  H362  1  0.72877000  0.72877000  0.77123000  1
  H  H363  1  0.77975500  0.61147500  0.80437500  1
  H  H364  1  0.54456000  0.71156000  0.87194000  1
  H  H365  1  0.61147500  0.77975500  0.80439500  1
  H  H366  1  0.87194000  0.87194000  0.54456000  1
  H  H367  1  0.80439500  0.80437500  0.61147500  1
  H  H368  1  0.87194000  0.71156000  0.54456000  1
  H  H369  1  0.77123000  0.72877000  0.72877000  1
  H  H370  1  0.80437500  0.77975500  0.61147500  1
  H  H371  1  0.71156000  0.87194000  0.87194000  1
  H  H372  1  0.72877000  0.77123000  0.77123000  1
  H  H373  1  0.77975500  0.80437500  0.80439500  1
  H  H374  1  0.54456000  0.87194000  0.87194000  1
  H  H375  1  0.61147500  0.80439500  0.80437500  1
  H  H376  1  0.87194000  0.54456000  0.71156000  1
  H  H377  1  0.80439500  0.61147500  0.77975500  1
  H  H378  1  0.72877000  0.77123000  0.72877000  1
  H  H379  1  0.77123000  0.72877000  0.77123000  1
  H  H380  1  0.22877000  0.22877000  0.27123000  1
  H  H381  1  0.27123000  0.27123000  0.22877000  1
  H  H382  1  0.22877000  0.27123000  0.27123000  1
  H  H383  1  0.27123000  0.22877000  0.22877000  1
  H  H384  1  0.43382000  0.43382000  0.23560000  1
  H  H385  1  0.38146000  0.38146000  0.19736000  1
  H  H386  1  0.89676000  0.23560000  0.43382000  1
  H  H387  1  0.03972000  0.19736000  0.38146000  1
  H  H388  1  0.23560000  0.89676000  0.43382000  1
  H  H389  1  0.19736000  0.03972000  0.38146000  1
  H  H390  1  0.43382000  0.43382000  0.89676000  1
  H  H391  1  0.38146000  0.38146000  0.03972000  1
  H  H392  1  0.43382000  0.23560000  0.43382000  1
  H  H393  1  0.38146000  0.19736000  0.38146000  1
  H  H394  1  0.23560000  0.43382000  0.89676000  1
  H  H395  1  0.19736000  0.38146000  0.03972000  1
  H  H396  1  0.89676000  0.43382000  0.23560000  1
  H  H397  1  0.03972000  0.38146000  0.19736000  1
  H  H398  1  0.43382000  0.89676000  0.43382000  1
  H  H399  1  0.38146000  0.03972000  0.38146000  1
  H  H400  1  0.23560000  0.43382000  0.43382000  1
  H  H401  1  0.19736000  0.38146000  0.38146000  1
  H  H402  1  0.43382000  0.89676000  0.23560000  1
  H  H403  1  0.38146000  0.03972000  0.19736000  1
  H  H404  1  0.43382000  0.23560000  0.89676000  1
  H  H405  1  0.38146000  0.19736000  0.03972000  1
  H  H406  1  0.89676000  0.43382000  0.43382000  1
  H  H407  1  0.03972000  0.38146000  0.38146000  1
  H  H408  1  0.10324000  0.56618000  0.76440000  1
  H  H409  1  0.96028000  0.61854000  0.80264000  1
  H  H410  1  0.56618000  0.76440000  0.56618000  1
  H  H411  1  0.61854000  0.80264000  0.61854000  1
  H  H412  1  0.56618000  0.10324000  0.56618000  1
  H  H413  1  0.61854000  0.96028000  0.61854000  1
  H  H414  1  0.76440000  0.56618000  0.10324000  1
  H  H415  1  0.80264000  0.61854000  0.96028000  1
  H  H416  1  0.10324000  0.76440000  0.56618000  1
  H  H417  1  0.96028000  0.80264000  0.61854000  1
  H  H418  1  0.56618000  0.56618000  0.10324000  1
  H  H419  1  0.61854000  0.61854000  0.96028000  1
  H  H420  1  0.56618000  0.56618000  0.76440000  1
  H  H421  1  0.61854000  0.61854000  0.80264000  1
  H  H422  1  0.76440000  0.10324000  0.56618000  1
  H  H423  1  0.80264000  0.96028000  0.61854000  1
  H  H424  1  0.10324000  0.56618000  0.56618000  1
  H  H425  1  0.96028000  0.61854000  0.61854000  1
  H  H426  1  0.56618000  0.10324000  0.76440000  1
  H  H427  1  0.61854000  0.96028000  0.80264000  1
  H  H428  1  0.56618000  0.76440000  0.10324000  1
  H  H429  1  0.61854000  0.80264000  0.96028000  1
  H  H430  1  0.76440000  0.56618000  0.56618000  1
  H  H431  1  0.80264000  0.61854000  0.61854000  1
  N  N432  1  0.46710000  0.46710000  0.08830000  1
  N  N433  1  0.97750000  0.08830000  0.46710000  1
  N  N434  1  0.08830000  0.97750000  0.46710000  1
  N  N435  1  0.46710000  0.46710000  0.97750000  1
  N  N436  1  0.46710000  0.08830000  0.46710000  1
  N  N437  1  0.08830000  0.46710000  0.97750000  1
  N  N438  1  0.97750000  0.46710000  0.08830000  1
  N  N439  1  0.46710000  0.97750000  0.46710000  1
  N  N440  1  0.08830000  0.46710000  0.46710000  1
  N  N441  1  0.46710000  0.97750000  0.08830000  1
  N  N442  1  0.46710000  0.08830000  0.97750000  1
  N  N443  1  0.97750000  0.46710000  0.46710000  1
  N  N444  1  0.02250000  0.53290000  0.91170000  1
  N  N445  1  0.53290000  0.91170000  0.53290000  1
  N  N446  1  0.53290000  0.02250000  0.53290000  1
  N  N447  1  0.91170000  0.53290000  0.02250000  1
  N  N448  1  0.02250000  0.91170000  0.53290000  1
  N  N449  1  0.53290000  0.53290000  0.02250000  1
  N  N450  1  0.53290000  0.53290000  0.91170000  1
  N  N451  1  0.91170000  0.02250000  0.53290000  1
  N  N452  1  0.02250000  0.53290000  0.53290000  1
  N  N453  1  0.53290000  0.02250000  0.91170000  1
  N  N454  1  0.53290000  0.91170000  0.02250000  1
  N  N455  1  0.91170000  0.53290000  0.53290000  1
  O  O456  1  0.54364000  0.45636000  0.35802000  1
  O  O457  1  0.64198000  0.35802000  0.45636000  1
  O  O458  1  0.35802000  0.64198000  0.54364000  1
  O  O459  1  0.45636000  0.54364000  0.64198000  1
  O  O460  1  0.45636000  0.35802000  0.54364000  1
  O  O461  1  0.35802000  0.45636000  0.64198000  1
  O  O462  1  0.64198000  0.54364000  0.35802000  1
  O  O463  1  0.54364000  0.64198000  0.45636000  1
  O  O464  1  0.35802000  0.54364000  0.45636000  1
  O  O465  1  0.45636000  0.64198000  0.35802000  1
  O  O466  1  0.54364000  0.35802000  0.64198000  1
  O  O467  1  0.64198000  0.45636000  0.54364000  1
  O  O468  1  0.35802000  0.54364000  0.64198000  1
  O  O469  1  0.45636000  0.64198000  0.54364000  1
  O  O470  1  0.54364000  0.35802000  0.45636000  1
  O  O471  1  0.64198000  0.45636000  0.35802000  1
  O  O472  1  0.35802000  0.64198000  0.45636000  1
  O  O473  1  0.45636000  0.54364000  0.35802000  1
  O  O474  1  0.54364000  0.45636000  0.64198000  1
  O  O475  1  0.64198000  0.35802000  0.54364000  1
  O  O476  1  0.35802000  0.45636000  0.54364000  1
  O  O477  1  0.45636000  0.35802000  0.64198000  1
  O  O478  1  0.54364000  0.64198000  0.35802000  1
  O  O479  1  0.64198000  0.54364000  0.45636000  1
  O  O480  1  0.46860000  0.46860000  0.46860000  1
  O  O481  1  0.59420000  0.46860000  0.46860000  1
  O  O482  1  0.46860000  0.59420000  0.46860000  1
  O  O483  1  0.46860000  0.46860000  0.59420000  1
  O  O484  1  0.40580000  0.53140000  0.53140000  1
  O  O485  1  0.53140000  0.53140000  0.53140000  1
  O  O486  1  0.53140000  0.40580000  0.53140000  1
  O  O487  1  0.53140000  0.53140000  0.40580000  1
  Zn  Zn488  1  0.50000000  0.50000000  0.00000000  1
  Zn  Zn489  1  1.00000000  0.00000000  0.50000000  1
  Zn  Zn490  1  0.50000000  0.00000000  0.50000000  1
  Zn  Zn491  1  0.00000000  0.50000000  0.00000000  1
  Zn  Zn492  1  0.00000000  0.50000000  0.50000000  1
  Zn  Zn493  1  0.50000000  0.00000000  0.00000000  1
  Zr  Zr494  1  0.56405000  0.43595000  0.43595000  1
  Zr  Zr495  1  0.43595000  0.56405000  0.56405000  1
  Zr  Zr496  1  0.43595000  0.43595000  0.56405000  1
  Zr  Zr497  1  0.56405000  0.56405000  0.43595000  1
  Zr  Zr498  1  0.43595000  0.56405000  0.43595000  1
  Zr  Zr499  1  0.56405000  0.43595000  0.56405000  1
