# generated using pymatgen
data_Zr3H12(C5O3)4
_symmetry_space_group_name_H-M   'P 1'
_cell_length_a   16.90000000
_cell_length_b   22.53000000
_cell_length_c   25.38000000
_cell_angle_alpha   90.00000000
_cell_angle_beta   90.00000000
_cell_angle_gamma   90.00000000
_symmetry_Int_Tables_number   1
_chemical_formula_structural   Zr3H12(C5O3)4
_chemical_formula_sum   'Zr24 H96 C160 O96'
_cell_volume   9663.61266000
_cell_formula_units_Z   8
loop_
 _symmetry_equiv_pos_site_id
 _symmetry_equiv_pos_as_xyz
  1  'x, y, z'
loop_
 _atom_site_type_symbol
 _atom_site_label
 _atom_site_symmetry_multiplicity
 _atom_site_fract_x
 _atom_site_fract_y
 _atom_site_fract_z
 _atom_site_occupancy
  Zr  Zr0  1  0.12318000  1.00000000  0.34822000  1
  Zr  Zr1  1  0.12318000  0.50000000  0.84822000  1
  Zr  Zr2  1  0.12318000  0.00000000  0.15178000  1
  Zr  Zr3  1  0.12318000  0.50000000  0.65178000  1
  Zr  Zr4  1  0.87682000  0.00000000  0.84822000  1
  Zr  Zr5  1  0.87682000  0.50000000  0.34822000  1
  Zr  Zr6  1  0.87682000  0.00000000  0.65178000  1
  Zr  Zr7  1  0.87682000  0.50000000  0.15178000  1
  Zr  Zr8  1  0.97594000  0.00000000  0.25000000  1
  Zr  Zr9  1  0.27235000  0.00000000  0.25000000  1
  Zr  Zr10  1  0.97594000  0.50000000  0.75000000  1
  Zr  Zr11  1  0.27235000  0.50000000  0.75000000  1
  Zr  Zr12  1  0.02406000  0.00000000  0.75000000  1
  Zr  Zr13  1  0.72765000  0.00000000  0.75000000  1
  Zr  Zr14  1  0.02406000  0.50000000  0.25000000  1
  Zr  Zr15  1  0.72765000  0.50000000  0.25000000  1
  Zr  Zr16  1  0.12415000  0.11012000  0.25000000  1
  Zr  Zr17  1  0.12415000  0.61012000  0.75000000  1
  Zr  Zr18  1  0.12415000  0.88988000  0.25000000  1
  Zr  Zr19  1  0.12415000  0.38988000  0.75000000  1
  Zr  Zr20  1  0.87585000  0.88988000  0.75000000  1
  Zr  Zr21  1  0.87585000  0.38988000  0.25000000  1
  Zr  Zr22  1  0.87585000  0.11012000  0.75000000  1
  Zr  Zr23  1  0.87585000  0.61012000  0.25000000  1
  H  H24  1  0.11150000  0.13480000  0.47820000  1
  H  H25  1  0.11550000  0.25820000  0.36350000  1
  H  H26  1  0.09860000  0.33440000  0.42740000  1
  H  H27  1  0.83730000  0.18330000  0.22530000  1
  H  H28  1  0.90240000  0.23010000  0.24010000  1
  H  H29  1  0.85600000  0.19670000  0.28460000  1
  H  H30  1  0.11150000  0.63480000  0.97820000  1
  H  H31  1  0.11550000  0.75820000  0.86350000  1
  H  H32  1  0.09860000  0.83440000  0.92740000  1
  H  H33  1  0.83730000  0.68330000  0.72530000  1
  H  H34  1  0.90240000  0.73010000  0.74010000  1
  H  H35  1  0.85600000  0.69670000  0.78460000  1
  H  H36  1  0.11150000  0.86520000  0.02180000  1
  H  H37  1  0.11550000  0.74180000  0.13650000  1
  H  H38  1  0.09860000  0.66560000  0.07260000  1
  H  H39  1  0.83730000  0.81670000  0.27470000  1
  H  H40  1  0.85600000  0.80330000  0.21540000  1
  H  H41  1  0.11150000  0.36520000  0.52180000  1
  H  H42  1  0.11550000  0.24180000  0.63650000  1
  H  H43  1  0.09860000  0.16560000  0.57260000  1
  H  H44  1  0.85600000  0.30330000  0.71540000  1
  H  H45  1  0.88850000  0.86520000  0.97820000  1
  H  H46  1  0.88450000  0.74180000  0.86350000  1
  H  H47  1  0.90140000  0.66560000  0.92740000  1
  H  H48  1  0.88850000  0.36520000  0.47820000  1
  H  H49  1  0.88450000  0.24180000  0.36350000  1
  H  H50  1  0.90140000  0.16560000  0.42740000  1
  H  H51  1  0.16270000  0.31670000  0.22530000  1
  H  H52  1  0.88850000  0.13480000  0.52180000  1
  H  H53  1  0.88450000  0.25820000  0.63650000  1
  H  H54  1  0.90140000  0.33440000  0.57260000  1
  H  H55  1  0.88850000  0.63480000  0.02180000  1
  H  H56  1  0.88450000  0.75820000  0.13650000  1
  H  H57  1  0.90140000  0.83440000  0.07260000  1
  H  H58  1  0.88850000  0.86520000  0.52180000  1
  H  H59  1  0.88450000  0.74180000  0.63650000  1
  H  H60  1  0.90140000  0.66560000  0.57260000  1
  H  H61  1  0.16270000  0.81670000  0.77470000  1
  H  H62  1  0.09760000  0.76990000  0.75990000  1
  H  H63  1  0.14400000  0.80330000  0.71540000  1
  H  H64  1  0.88850000  0.36520000  0.02180000  1
  H  H65  1  0.88450000  0.24180000  0.13650000  1
  H  H66  1  0.90140000  0.16560000  0.07260000  1
  H  H67  1  0.16270000  0.31670000  0.27470000  1
  H  H68  1  0.09760000  0.26990000  0.25990000  1
  H  H69  1  0.88850000  0.13480000  0.97820000  1
  H  H70  1  0.88450000  0.25820000  0.86350000  1
  H  H71  1  0.90140000  0.33440000  0.92740000  1
  H  H72  1  0.16270000  0.18330000  0.72530000  1
  H  H73  1  0.09760000  0.23010000  0.74010000  1
  H  H74  1  0.14400000  0.19670000  0.78460000  1
  H  H75  1  0.88850000  0.63480000  0.47820000  1
  H  H76  1  0.88450000  0.75820000  0.36350000  1
  H  H77  1  0.90140000  0.83440000  0.42740000  1
  H  H78  1  0.16270000  0.68330000  0.22530000  1
  H  H79  1  0.09760000  0.73010000  0.24010000  1
  H  H80  1  0.14400000  0.69670000  0.28460000  1
  H  H81  1  0.11150000  0.13480000  0.02180000  1
  H  H82  1  0.11550000  0.25820000  0.13650000  1
  H  H83  1  0.09860000  0.33440000  0.07260000  1
  H  H84  1  0.11150000  0.63480000  0.52180000  1
  H  H85  1  0.11550000  0.75820000  0.63650000  1
  H  H86  1  0.09860000  0.83440000  0.57260000  1
  H  H87  1  0.11150000  0.86520000  0.47820000  1
  H  H88  1  0.11550000  0.74180000  0.36350000  1
  H  H89  1  0.09860000  0.66560000  0.42740000  1
  H  H90  1  0.90240000  0.76990000  0.24010000  1
  H  H91  1  0.11150000  0.36520000  0.97820000  1
  H  H92  1  0.11550000  0.24180000  0.86350000  1
  H  H93  1  0.09860000  0.16560000  0.92740000  1
  H  H94  1  0.90240000  0.26990000  0.74010000  1
  H  H95  1  0.85600000  0.30330000  0.78460000  1
  H  H96  1  0.29610000  0.26340000  0.25000000  1
  H  H97  1  0.39210000  0.33320000  0.25000000  1
  H  H98  1  0.46680000  0.13610000  0.25000000  1
  H  H99  1  0.29610000  0.76340000  0.75000000  1
  H  H100  1  0.39210000  0.83320000  0.75000000  1
  H  H101  1  0.46680000  0.63610000  0.75000000  1
  H  H102  1  0.29610000  0.73660000  0.25000000  1
  H  H103  1  0.39210000  0.66680000  0.25000000  1
  H  H104  1  0.46680000  0.86390000  0.25000000  1
  H  H105  1  0.29610000  0.23660000  0.75000000  1
  H  H106  1  0.39210000  0.16680000  0.75000000  1
  H  H107  1  0.46680000  0.36390000  0.75000000  1
  H  H108  1  0.70390000  0.73660000  0.75000000  1
  H  H109  1  0.60790000  0.66680000  0.75000000  1
  H  H110  1  0.53320000  0.86390000  0.75000000  1
  H  H111  1  0.70390000  0.23660000  0.25000000  1
  H  H112  1  0.60790000  0.16680000  0.25000000  1
  H  H113  1  0.53320000  0.36390000  0.25000000  1
  H  H114  1  0.70390000  0.26340000  0.75000000  1
  H  H115  1  0.60790000  0.33320000  0.75000000  1
  H  H116  1  0.53320000  0.13610000  0.75000000  1
  H  H117  1  0.70390000  0.76340000  0.25000000  1
  H  H118  1  0.60790000  0.83320000  0.25000000  1
  H  H119  1  0.53320000  0.63610000  0.25000000  1
  C  C120  1  0.12290000  0.14270000  0.37580000  1
  C  C121  1  0.11860000  0.18970000  0.41480000  1
  C  C122  1  0.11440000  0.17450000  0.46830000  1
  C  C123  1  0.11470000  0.22040000  0.50810000  1
  C  C124  1  0.11410000  0.24880000  0.39910000  1
  C  C125  1  0.10740000  0.29520000  0.43760000  1
  C  C126  1  0.12290000  0.64270000  0.87580000  1
  C  C127  1  0.11860000  0.68970000  0.91480000  1
  C  C128  1  0.11440000  0.67450000  0.96830000  1
  C  C129  1  0.11470000  0.72040000  0.00810000  1
  C  C130  1  0.11410000  0.74880000  0.89910000  1
  C  C131  1  0.10740000  0.79520000  0.93760000  1
  C  C132  1  0.12290000  0.85730000  0.12420000  1
  C  C133  1  0.11860000  0.81030000  0.08520000  1
  C  C134  1  0.11440000  0.82550000  0.03170000  1
  C  C135  1  0.11470000  0.77960000  0.99190000  1
  C  C136  1  0.11410000  0.75120000  0.10090000  1
  C  C137  1  0.10740000  0.70480000  0.06240000  1
  C  C138  1  0.12290000  0.35730000  0.62420000  1
  C  C139  1  0.11860000  0.31030000  0.58520000  1
  C  C140  1  0.11440000  0.32550000  0.53170000  1
  C  C141  1  0.11470000  0.27960000  0.49190000  1
  C  C142  1  0.11410000  0.25120000  0.60090000  1
  C  C143  1  0.10740000  0.20480000  0.56240000  1
  C  C144  1  0.87710000  0.85730000  0.87580000  1
  C  C145  1  0.88140000  0.81030000  0.91480000  1
  C  C146  1  0.88560000  0.82550000  0.96830000  1
  C  C147  1  0.88530000  0.77960000  0.00810000  1
  C  C148  1  0.88590000  0.75120000  0.89910000  1
  C  C149  1  0.89260000  0.70480000  0.93760000  1
  C  C150  1  0.87710000  0.35730000  0.37580000  1
  C  C151  1  0.88140000  0.31030000  0.41480000  1
  C  C152  1  0.88560000  0.32550000  0.46830000  1
  C  C153  1  0.88530000  0.27960000  0.50810000  1
  C  C154  1  0.88590000  0.25120000  0.39910000  1
  C  C155  1  0.89260000  0.20480000  0.43760000  1
  C  C156  1  0.87710000  0.14270000  0.62420000  1
  C  C157  1  0.88140000  0.18970000  0.58520000  1
  C  C158  1  0.88560000  0.17450000  0.53170000  1
  C  C159  1  0.88530000  0.22040000  0.49190000  1
  C  C160  1  0.88590000  0.24880000  0.60090000  1
  C  C161  1  0.89260000  0.29520000  0.56240000  1
  C  C162  1  0.87710000  0.64270000  0.12420000  1
  C  C163  1  0.88140000  0.68970000  0.08520000  1
  C  C164  1  0.88560000  0.67450000  0.03170000  1
  C  C165  1  0.88530000  0.72040000  0.99190000  1
  C  C166  1  0.88590000  0.74880000  0.10090000  1
  C  C167  1  0.89260000  0.79520000  0.06240000  1
  C  C168  1  0.87710000  0.85730000  0.62420000  1
  C  C169  1  0.88140000  0.81030000  0.58520000  1
  C  C170  1  0.88560000  0.82550000  0.53170000  1
  C  C171  1  0.88530000  0.77960000  0.49190000  1
  C  C172  1  0.88590000  0.75120000  0.60090000  1
  C  C173  1  0.89260000  0.70480000  0.56240000  1
  C  C174  1  0.87710000  0.35730000  0.12420000  1
  C  C175  1  0.88140000  0.31030000  0.08520000  1
  C  C176  1  0.88560000  0.32550000  0.03170000  1
  C  C177  1  0.88530000  0.27960000  0.99190000  1
  C  C178  1  0.88590000  0.25120000  0.10090000  1
  C  C179  1  0.89260000  0.20480000  0.06240000  1
  C  C180  1  0.87710000  0.14270000  0.87580000  1
  C  C181  1  0.88140000  0.18970000  0.91480000  1
  C  C182  1  0.88560000  0.17450000  0.96830000  1
  C  C183  1  0.88530000  0.22040000  0.00810000  1
  C  C184  1  0.88590000  0.24880000  0.89910000  1
  C  C185  1  0.89260000  0.29520000  0.93760000  1
  C  C186  1  0.87710000  0.64270000  0.37580000  1
  C  C187  1  0.88140000  0.68970000  0.41480000  1
  C  C188  1  0.88560000  0.67450000  0.46830000  1
  C  C189  1  0.88530000  0.72040000  0.50810000  1
  C  C190  1  0.88590000  0.74880000  0.39910000  1
  C  C191  1  0.89260000  0.79520000  0.43760000  1
  C  C192  1  0.12290000  0.14270000  0.12420000  1
  C  C193  1  0.11860000  0.18970000  0.08520000  1
  C  C194  1  0.11440000  0.17450000  0.03170000  1
  C  C195  1  0.11470000  0.22040000  0.99190000  1
  C  C196  1  0.11410000  0.24880000  0.10090000  1
  C  C197  1  0.10740000  0.29520000  0.06240000  1
  C  C198  1  0.12290000  0.64270000  0.62420000  1
  C  C199  1  0.11860000  0.68970000  0.58520000  1
  C  C200  1  0.11440000  0.67450000  0.53170000  1
  C  C201  1  0.11470000  0.72040000  0.49190000  1
  C  C202  1  0.11410000  0.74880000  0.60090000  1
  C  C203  1  0.10740000  0.79520000  0.56240000  1
  C  C204  1  0.12290000  0.85730000  0.37580000  1
  C  C205  1  0.11860000  0.81030000  0.41480000  1
  C  C206  1  0.11440000  0.82550000  0.46830000  1
  C  C207  1  0.11470000  0.77960000  0.50810000  1
  C  C208  1  0.11410000  0.75120000  0.39910000  1
  C  C209  1  0.10740000  0.70480000  0.43760000  1
  C  C210  1  0.12290000  0.35730000  0.87580000  1
  C  C211  1  0.11860000  0.31030000  0.91480000  1
  C  C212  1  0.11440000  0.32550000  0.96830000  1
  C  C213  1  0.11470000  0.27960000  0.00810000  1
  C  C214  1  0.11410000  0.25120000  0.89910000  1
  C  C215  1  0.10740000  0.20480000  0.93760000  1
  C  C216  1  0.30630000  0.14640000  0.25000000  1
  C  C217  1  0.37080000  0.19150000  0.25000000  1
  C  C218  1  0.34910000  0.25220000  0.25000000  1
  C  C219  1  0.40710000  0.29350000  0.25000000  1
  C  C220  1  0.45240000  0.17590000  0.25000000  1
  C  C221  1  0.51080000  0.21930000  0.25000000  1
  C  C222  1  0.94190000  0.14330000  0.25000000  1
  C  C223  1  0.87830000  0.19310000  0.25000000  1
  C  C224  1  0.30630000  0.64640000  0.75000000  1
  C  C225  1  0.37080000  0.69150000  0.75000000  1
  C  C226  1  0.34910000  0.75220000  0.75000000  1
  C  C227  1  0.40710000  0.79350000  0.75000000  1
  C  C228  1  0.45240000  0.67590000  0.75000000  1
  C  C229  1  0.51080000  0.71930000  0.75000000  1
  C  C230  1  0.94190000  0.64330000  0.75000000  1
  C  C231  1  0.87830000  0.69310000  0.75000000  1
  C  C232  1  0.30630000  0.85360000  0.25000000  1
  C  C233  1  0.37080000  0.80850000  0.25000000  1
  C  C234  1  0.34910000  0.74780000  0.25000000  1
  C  C235  1  0.40710000  0.70650000  0.25000000  1
  C  C236  1  0.45240000  0.82410000  0.25000000  1
  C  C237  1  0.51080000  0.78070000  0.25000000  1
  C  C238  1  0.94190000  0.85670000  0.25000000  1
  C  C239  1  0.87830000  0.80690000  0.25000000  1
  C  C240  1  0.30630000  0.35360000  0.75000000  1
  C  C241  1  0.37080000  0.30850000  0.75000000  1
  C  C242  1  0.34910000  0.24780000  0.75000000  1
  C  C243  1  0.40710000  0.20650000  0.75000000  1
  C  C244  1  0.45240000  0.32410000  0.75000000  1
  C  C245  1  0.51080000  0.28070000  0.75000000  1
  C  C246  1  0.94190000  0.35670000  0.75000000  1
  C  C247  1  0.87830000  0.30690000  0.75000000  1
  C  C248  1  0.69370000  0.85360000  0.75000000  1
  C  C249  1  0.62920000  0.80850000  0.75000000  1
  C  C250  1  0.65090000  0.74780000  0.75000000  1
  C  C251  1  0.59290000  0.70650000  0.75000000  1
  C  C252  1  0.54760000  0.82410000  0.75000000  1
  C  C253  1  0.48920000  0.78070000  0.75000000  1
  C  C254  1  0.05810000  0.85670000  0.75000000  1
  C  C255  1  0.12170000  0.80690000  0.75000000  1
  C  C256  1  0.69370000  0.35360000  0.25000000  1
  C  C257  1  0.62920000  0.30850000  0.25000000  1
  C  C258  1  0.65090000  0.24780000  0.25000000  1
  C  C259  1  0.59290000  0.20650000  0.25000000  1
  C  C260  1  0.54760000  0.32410000  0.25000000  1
  C  C261  1  0.48920000  0.28070000  0.25000000  1
  C  C262  1  0.05810000  0.35670000  0.25000000  1
  C  C263  1  0.12170000  0.30690000  0.25000000  1
  C  C264  1  0.69370000  0.14640000  0.75000000  1
  C  C265  1  0.62920000  0.19150000  0.75000000  1
  C  C266  1  0.65090000  0.25220000  0.75000000  1
  C  C267  1  0.59290000  0.29350000  0.75000000  1
  C  C268  1  0.54760000  0.17590000  0.75000000  1
  C  C269  1  0.48920000  0.21930000  0.75000000  1
  C  C270  1  0.05810000  0.14330000  0.75000000  1
  C  C271  1  0.12170000  0.19310000  0.75000000  1
  C  C272  1  0.69370000  0.64640000  0.25000000  1
  C  C273  1  0.62920000  0.69150000  0.25000000  1
  C  C274  1  0.65090000  0.75220000  0.25000000  1
  C  C275  1  0.59290000  0.79350000  0.25000000  1
  C  C276  1  0.54760000  0.67590000  0.25000000  1
  C  C277  1  0.48920000  0.71930000  0.25000000  1
  C  C278  1  0.05810000  0.64330000  0.25000000  1
  C  C279  1  0.12170000  0.69310000  0.25000000  1
  O  O280  1  0.19810000  0.05470000  0.29930000  1
  O  O281  1  0.05090000  0.05160000  0.29850000  1
  O  O282  1  0.12520000  0.15780000  0.32690000  1
  O  O283  1  0.12280000  0.09060000  0.38920000  1
  O  O284  1  0.19810000  0.55470000  0.79930000  1
  O  O285  1  0.05090000  0.55160000  0.79850000  1
  O  O286  1  0.12520000  0.65780000  0.82690000  1
  O  O287  1  0.12280000  0.59060000  0.88920000  1
  O  O288  1  0.19810000  0.94530000  0.20070000  1
  O  O289  1  0.05090000  0.94840000  0.20150000  1
  O  O290  1  0.12520000  0.84220000  0.17310000  1
  O  O291  1  0.12280000  0.90940000  0.11080000  1
  O  O292  1  0.19810000  0.44530000  0.70070000  1
  O  O293  1  0.05090000  0.44840000  0.70150000  1
  O  O294  1  0.12520000  0.34220000  0.67310000  1
  O  O295  1  0.12280000  0.40940000  0.61080000  1
  O  O296  1  0.80190000  0.94530000  0.79930000  1
  O  O297  1  0.94910000  0.94840000  0.79850000  1
  O  O298  1  0.87480000  0.84220000  0.82690000  1
  O  O299  1  0.87720000  0.90940000  0.88920000  1
  O  O300  1  0.80190000  0.44530000  0.29930000  1
  O  O301  1  0.94910000  0.44840000  0.29850000  1
  O  O302  1  0.87480000  0.34220000  0.32690000  1
  O  O303  1  0.87720000  0.40940000  0.38920000  1
  O  O304  1  0.80190000  0.05470000  0.70070000  1
  O  O305  1  0.94910000  0.05160000  0.70150000  1
  O  O306  1  0.87480000  0.15780000  0.67310000  1
  O  O307  1  0.87720000  0.09060000  0.61080000  1
  O  O308  1  0.80190000  0.55470000  0.20070000  1
  O  O309  1  0.94910000  0.55160000  0.20150000  1
  O  O310  1  0.87480000  0.65780000  0.17310000  1
  O  O311  1  0.87720000  0.59060000  0.11080000  1
  O  O312  1  0.80190000  0.94530000  0.70070000  1
  O  O313  1  0.94910000  0.94840000  0.70150000  1
  O  O314  1  0.87480000  0.84220000  0.67310000  1
  O  O315  1  0.87720000  0.90940000  0.61080000  1
  O  O316  1  0.80190000  0.44530000  0.20070000  1
  O  O317  1  0.94910000  0.44840000  0.20150000  1
  O  O318  1  0.87480000  0.34220000  0.17310000  1
  O  O319  1  0.87720000  0.40940000  0.11080000  1
  O  O320  1  0.80190000  0.05470000  0.79930000  1
  O  O321  1  0.94910000  0.05160000  0.79850000  1
  O  O322  1  0.87480000  0.15780000  0.82690000  1
  O  O323  1  0.87720000  0.09060000  0.88920000  1
  O  O324  1  0.80190000  0.55470000  0.29930000  1
  O  O325  1  0.94910000  0.55160000  0.29850000  1
  O  O326  1  0.87480000  0.65780000  0.32690000  1
  O  O327  1  0.87720000  0.59060000  0.38920000  1
  O  O328  1  0.19810000  0.05470000  0.20070000  1
  O  O329  1  0.05090000  0.05160000  0.20150000  1
  O  O330  1  0.12520000  0.15780000  0.17310000  1
  O  O331  1  0.12280000  0.09060000  0.11080000  1
  O  O332  1  0.19810000  0.55470000  0.70070000  1
  O  O333  1  0.05090000  0.55160000  0.70150000  1
  O  O334  1  0.12520000  0.65780000  0.67310000  1
  O  O335  1  0.12280000  0.59060000  0.61080000  1
  O  O336  1  0.19810000  0.94530000  0.29930000  1
  O  O337  1  0.05090000  0.94840000  0.29850000  1
  O  O338  1  0.12520000  0.84220000  0.32690000  1
  O  O339  1  0.12280000  0.90940000  0.38920000  1
  O  O340  1  0.19810000  0.44530000  0.79930000  1
  O  O341  1  0.05090000  0.44840000  0.79850000  1
  O  O342  1  0.12520000  0.34220000  0.82690000  1
  O  O343  1  0.12280000  0.40940000  0.88920000  1
  O  O344  1  0.23800000  0.16010000  0.25000000  1
  O  O345  1  0.32840000  0.09320000  0.25000000  1
  O  O346  1  0.01550000  0.16100000  0.25000000  1
  O  O347  1  0.91780000  0.09170000  0.25000000  1
  O  O348  1  0.23800000  0.66010000  0.75000000  1
  O  O349  1  0.32840000  0.59320000  0.75000000  1
  O  O350  1  0.01550000  0.66100000  0.75000000  1
  O  O351  1  0.91780000  0.59170000  0.75000000  1
  O  O352  1  0.23800000  0.83990000  0.25000000  1
  O  O353  1  0.32840000  0.90680000  0.25000000  1
  O  O354  1  0.01550000  0.83900000  0.25000000  1
  O  O355  1  0.91780000  0.90830000  0.25000000  1
  O  O356  1  0.23800000  0.33990000  0.75000000  1
  O  O357  1  0.32840000  0.40680000  0.75000000  1
  O  O358  1  0.01550000  0.33900000  0.75000000  1
  O  O359  1  0.91780000  0.40830000  0.75000000  1
  O  O360  1  0.76200000  0.83990000  0.75000000  1
  O  O361  1  0.67160000  0.90680000  0.75000000  1
  O  O362  1  0.98450000  0.83900000  0.75000000  1
  O  O363  1  0.08220000  0.90830000  0.75000000  1
  O  O364  1  0.76200000  0.33990000  0.25000000  1
  O  O365  1  0.67160000  0.40680000  0.25000000  1
  O  O366  1  0.98450000  0.33900000  0.25000000  1
  O  O367  1  0.08220000  0.40830000  0.25000000  1
  O  O368  1  0.76200000  0.16010000  0.75000000  1
  O  O369  1  0.67160000  0.09320000  0.75000000  1
  O  O370  1  0.98450000  0.16100000  0.75000000  1
  O  O371  1  0.08220000  0.09170000  0.75000000  1
  O  O372  1  0.76200000  0.66010000  0.25000000  1
  O  O373  1  0.67160000  0.59320000  0.25000000  1
  O  O374  1  0.98450000  0.66100000  0.25000000  1
  O  O375  1  0.08220000  0.59170000  0.25000000  1
