# generated using pymatgen
data_Zr12H75C138(S3O31)2
_symmetry_space_group_name_H-M   'P 1'
_cell_length_a   16.37200000
_cell_length_b   20.09600000
_cell_length_c   20.09600000
_cell_angle_alpha   120.00000000
_cell_angle_beta   90.00000000
_cell_angle_gamma   90.00000000
_symmetry_Int_Tables_number   1
_chemical_formula_structural   Zr12H75C138(S3O31)2
_chemical_formula_sum   'Zr12 H75 C138 S6 O62'
_cell_volume   5726.00353476
_cell_formula_units_Z   1
loop_
 _symmetry_equiv_pos_site_id
 _symmetry_equiv_pos_as_xyz
  1  'x, y, z'
loop_
 _atom_site_type_symbol
 _atom_site_label
 _atom_site_symmetry_multiplicity
 _atom_site_fract_x
 _atom_site_fract_y
 _atom_site_fract_z
 _atom_site_occupancy
  Zr  Zr0  1  0.91470000  0.89740000  0.89740000  1
  Zr  Zr1  1  0.91470000  1.00000000  0.10260000  1
  Zr  Zr2  1  0.91470000  0.10260000  0.00000000  1
  Zr  Zr3  1  0.91470000  0.10260000  0.10260000  1
  Zr  Zr4  1  0.91470000  1.00000000  0.89740000  1
  Zr  Zr5  1  0.91470000  0.89740000  0.00000000  1
  Zr  Zr6  1  0.08530000  1.00000000  0.10260000  1
  Zr  Zr7  1  0.08530000  0.89740000  0.89740000  1
  Zr  Zr8  1  0.08530000  0.10260000  0.00000000  1
  Zr  Zr9  1  0.08530000  1.00000000  0.89740000  1
  Zr  Zr10  1  0.08530000  0.10260000  0.10260000  1
  Zr  Zr11  1  0.08530000  0.89740000  0.00000000  1
  H  H12  1  0.73800000  0.88970000  0.75290000  1
  H  H13  1  0.62060000  0.87470000  0.67910000  1
  H  H14  1  0.54880000  0.09210000  0.83450000  1
  H  H15  1  0.08930000  0.24710000  0.35510000  1
  H  H16  1  0.08870000  0.31470000  0.48970000  1
  H  H17  1  0.08930000  0.10800000  0.75290000  1
  H  H18  1  0.08870000  0.17500000  0.68530000  1
  H  H19  1  0.08930000  0.35510000  0.10800000  1
  H  H20  1  0.08870000  0.48970000  0.17500000  1
  H  H21  1  0.26200000  0.13680000  0.24710000  1
  H  H22  1  0.37940000  0.19560000  0.32090000  1
  H  H23  1  0.45120000  0.25760000  0.16550000  1
  H  H24  1  0.91070000  0.35510000  0.24710000  1
  H  H25  1  0.91130000  0.48970000  0.31470000  1
  H  H26  1  0.26200000  0.11030000  0.86320000  1
  H  H27  1  0.37940000  0.12530000  0.80440000  1
  H  H28  1  0.45120000  0.90790000  0.74240000  1
  H  H29  1  0.33390000  0.89240000  0.80110000  1
  H  H30  1  0.91070000  0.24710000  0.89200000  1
  H  H31  1  0.91130000  0.31470000  0.82500000  1
  H  H32  1  0.26200000  0.86320000  0.75290000  1
  H  H33  1  0.37940000  0.80440000  0.67910000  1
  H  H34  1  0.45120000  0.74240000  0.83450000  1
  H  H35  1  0.91070000  0.10800000  0.35510000  1
  H  H36  1  0.91130000  0.17500000  0.48970000  1
  H  H37  1  0.26200000  0.24710000  0.11030000  1
  H  H38  1  0.37940000  0.32090000  0.12530000  1
  H  H39  1  0.45120000  0.16550000  0.90790000  1
  H  H40  1  0.33390000  0.09130000  0.89240000  1
  H  H41  1  0.26200000  0.88970000  0.13680000  1
  H  H42  1  0.37940000  0.87470000  0.19560000  1
  H  H43  1  0.45120000  0.09210000  0.25760000  1
  H  H44  1  0.33390000  0.10760000  0.19890000  1
  H  H45  1  0.91070000  0.75290000  0.64490000  1
  H  H46  1  0.91130000  0.68530000  0.51030000  1
  H  H47  1  0.91070000  0.89200000  0.24710000  1
  H  H48  1  0.91130000  0.82500000  0.31470000  1
  H  H49  1  0.91070000  0.64490000  0.89200000  1
  H  H50  1  0.91130000  0.51030000  0.82500000  1
  H  H51  1  0.26200000  0.86320000  0.11030000  1
  H  H52  1  0.37940000  0.80440000  0.12530000  1
  H  H53  1  0.45120000  0.74240000  0.90790000  1
  H  H54  1  0.33390000  0.80110000  0.89240000  1
  H  H55  1  0.73800000  0.86320000  0.75290000  1
  H  H56  1  0.62060000  0.80440000  0.67910000  1
  H  H57  1  0.54880000  0.74240000  0.83450000  1
  H  H58  1  0.66610000  0.80110000  0.90870000  1
  H  H59  1  0.73800000  0.24710000  0.11030000  1
  H  H60  1  0.62060000  0.32090000  0.12530000  1
  H  H61  1  0.54880000  0.16550000  0.90790000  1
  H  H62  1  0.66610000  0.09130000  0.89240000  1
  H  H63  1  0.08930000  0.64490000  0.75290000  1
  H  H64  1  0.08870000  0.51030000  0.68530000  1
  H  H65  1  0.73800000  0.88970000  0.13680000  1
  H  H66  1  0.62060000  0.87470000  0.19560000  1
  H  H67  1  0.54880000  0.09210000  0.25760000  1
  H  H68  1  0.66610000  0.10760000  0.19890000  1
  H  H69  1  0.08930000  0.75290000  0.10800000  1
  H  H70  1  0.08870000  0.68530000  0.17500000  1
  H  H71  1  0.73800000  0.13680000  0.24710000  1
  H  H72  1  0.62060000  0.19560000  0.32090000  1
  H  H73  1  0.54880000  0.25760000  0.16550000  1
  H  H74  1  0.08930000  0.89200000  0.64490000  1
  H  H75  1  0.08870000  0.82500000  0.51030000  1
  H  H76  1  0.73800000  0.75290000  0.88970000  1
  H  H77  1  0.62060000  0.67910000  0.87470000  1
  H  H78  1  0.54880000  0.83450000  0.09210000  1
  H  H79  1  1.00000000  0.40085000  0.59915000  1
  H  H80  1  0.00000000  0.19830000  0.59915000  1
  H  H81  1  0.00000000  0.40085000  0.80170000  1
  H  H82  1  0.00000000  0.59915000  0.40085000  1
  H  H83  1  0.00000000  0.80170000  0.40085000  1
  H  H84  1  0.00000000  0.59915000  0.19830000  1
  H  H85  1  0.33179000  0.20012000  0.08317000  1
  H  H86  1  0.66821000  0.20012000  0.08317000  1
  C  C87  1  0.69900000  0.93070000  0.76980000  1
  C  C88  1  0.62970000  0.92190000  0.72620000  1
  C  C89  1  0.57430000  0.98210000  0.75020000  1
  C  C90  1  0.58790000  0.05110000  0.81760000  1
  C  C91  1  0.65710000  0.06030000  0.86150000  1
  C  C92  1  0.05230000  0.23230000  0.38240000  1
  C  C93  1  0.05180000  0.27240000  0.46210000  1
  C  C94  1  0.05230000  0.15010000  0.76770000  1
  C  C95  1  0.05180000  0.18970000  0.72760000  1
  C  C96  1  0.05230000  0.38240000  0.15010000  1
  C  C97  1  0.05180000  0.46210000  0.18970000  1
  C  C98  1  0.30100000  0.16090000  0.23020000  1
  C  C99  1  0.37030000  0.19570000  0.27380000  1
  C  C100  1  0.42570000  0.23190000  0.24980000  1
  C  C101  1  0.41210000  0.23350000  0.18240000  1
  C  C102  1  0.34290000  0.19880000  0.13850000  1
  C  C103  1  0.94770000  0.38240000  0.23230000  1
  C  C104  1  0.94820000  0.46210000  0.27240000  1
  C  C105  1  0.30100000  0.06930000  0.83910000  1
  C  C106  1  0.37030000  0.07810000  0.80430000  1
  C  C107  1  0.42570000  0.01790000  0.76810000  1
  C  C108  1  0.41210000  0.94890000  0.76650000  1
  C  C109  1  0.34290000  0.93970000  0.80120000  1
  C  C110  1  0.94770000  0.23230000  0.84990000  1
  C  C111  1  0.94820000  0.27240000  0.81030000  1
  C  C112  1  0.30100000  0.83910000  0.76980000  1
  C  C113  1  0.37030000  0.80430000  0.72620000  1
  C  C114  1  0.42570000  0.76810000  0.75020000  1
  C  C115  1  0.41210000  0.76650000  0.81760000  1
  C  C116  1  0.34290000  0.80120000  0.86150000  1
  C  C117  1  0.94770000  0.15010000  0.38240000  1
  C  C118  1  0.94820000  0.18970000  0.46210000  1
  C  C119  1  0.30100000  0.23020000  0.06930000  1
  C  C120  1  0.37030000  0.27380000  0.07810000  1
  C  C121  1  0.42570000  0.24980000  0.01790000  1
  C  C122  1  0.41210000  0.18240000  0.94890000  1
  C  C123  1  0.34290000  0.13850000  0.93970000  1
  C  C124  1  0.30100000  0.93070000  0.16090000  1
  C  C125  1  0.37030000  0.92190000  0.19570000  1
  C  C126  1  0.42570000  0.98210000  0.23190000  1
  C  C127  1  0.41210000  0.05110000  0.23350000  1
  C  C128  1  0.34290000  0.06030000  0.19880000  1
  C  C129  1  0.94770000  0.76770000  0.61760000  1
  C  C130  1  0.94820000  0.72760000  0.53790000  1
  C  C131  1  0.94770000  0.84990000  0.23230000  1
  C  C132  1  0.94820000  0.81030000  0.27240000  1
  C  C133  1  0.94770000  0.61760000  0.84990000  1
  C  C134  1  0.94820000  0.53790000  0.81030000  1
  C  C135  1  0.30100000  0.83910000  0.06930000  1
  C  C136  1  0.37030000  0.80430000  0.07810000  1
  C  C137  1  0.42570000  0.76810000  0.01790000  1
  C  C138  1  0.41210000  0.76650000  0.94890000  1
  C  C139  1  0.34290000  0.80120000  0.93970000  1
  C  C140  1  0.69900000  0.83910000  0.76980000  1
  C  C141  1  0.62970000  0.80430000  0.72620000  1
  C  C142  1  0.57430000  0.76810000  0.75020000  1
  C  C143  1  0.58790000  0.76650000  0.81760000  1
  C  C144  1  0.65710000  0.80120000  0.86150000  1
  C  C145  1  0.69900000  0.23020000  0.06930000  1
  C  C146  1  0.62970000  0.27380000  0.07810000  1
  C  C147  1  0.57430000  0.24980000  0.01790000  1
  C  C148  1  0.58790000  0.18240000  0.94890000  1
  C  C149  1  0.65710000  0.13850000  0.93970000  1
  C  C150  1  0.05230000  0.61760000  0.76770000  1
  C  C151  1  0.05180000  0.53790000  0.72760000  1
  C  C152  1  0.69900000  0.93070000  0.16090000  1
  C  C153  1  0.62970000  0.92190000  0.19570000  1
  C  C154  1  0.57430000  0.98210000  0.23190000  1
  C  C155  1  0.58790000  0.05110000  0.23350000  1
  C  C156  1  0.65710000  0.06030000  0.19880000  1
  C  C157  1  0.05230000  0.76770000  0.15010000  1
  C  C158  1  0.05180000  0.72760000  0.18970000  1
  C  C159  1  0.69900000  0.16090000  0.23020000  1
  C  C160  1  0.62970000  0.19570000  0.27380000  1
  C  C161  1  0.57430000  0.23190000  0.24980000  1
  C  C162  1  0.58790000  0.23350000  0.18240000  1
  C  C163  1  0.65710000  0.19880000  0.13850000  1
  C  C164  1  0.05230000  0.84990000  0.61760000  1
  C  C165  1  0.05180000  0.81030000  0.53790000  1
  C  C166  1  0.69900000  0.76980000  0.93070000  1
  C  C167  1  0.62970000  0.72620000  0.92190000  1
  C  C168  1  0.57430000  0.75020000  0.98210000  1
  C  C169  1  0.58790000  0.81760000  0.05110000  1
  C  C170  1  0.65710000  0.86150000  0.06030000  1
  C  C171  1  1.00000000  0.74670000  0.87335000  1
  C  C172  1  1.00000000  0.65830000  0.82915000  1
  C  C173  1  1.00000000  0.49720000  0.74860000  1
  C  C174  1  1.00000000  0.41360000  0.70680000  1
  C  C175  1  1.00000000  0.12665000  0.25330000  1
  C  C176  1  1.00000000  0.17085000  0.34170000  1
  C  C177  1  1.00000000  0.25140000  0.50280000  1
  C  C178  1  1.00000000  0.29320000  0.58640000  1
  C  C179  1  1.00000000  0.12665000  0.87335000  1
  C  C180  1  1.00000000  0.17085000  0.82915000  1
  C  C181  1  1.00000000  0.25140000  0.74860000  1
  C  C182  1  1.00000000  0.29320000  0.70680000  1
  C  C183  1  1.00000000  0.25330000  0.12665000  1
  C  C184  1  0.00000000  0.34170000  0.17085000  1
  C  C185  1  0.00000000  0.50280000  0.25140000  1
  C  C186  1  0.00000000  0.58640000  0.29320000  1
  C  C187  1  0.00000000  0.87335000  0.74670000  1
  C  C188  1  0.00000000  0.82915000  0.65830000  1
  C  C189  1  0.00000000  0.74860000  0.49720000  1
  C  C190  1  0.00000000  0.70680000  0.41360000  1
  C  C191  1  0.00000000  0.87335000  0.12665000  1
  C  C192  1  0.00000000  0.82915000  0.17085000  1
  C  C193  1  0.00000000  0.74860000  0.25140000  1
  C  C194  1  0.00000000  0.70680000  0.29320000  1
  C  C195  1  0.00000000  0.37325000  0.62675000  1
  C  C196  1  1.00000000  0.25350000  0.62675000  1
  C  C197  1  0.00000000  0.37325000  0.74650000  1
  C  C198  1  0.00000000  0.62675000  0.37325000  1
  C  C199  1  0.00000000  0.74650000  0.37325000  1
  C  C200  1  0.00000000  0.62675000  0.25350000  1
  C  C201  1  0.79710000  1.00000000  0.88123000  1
  C  C202  1  0.71250000  1.00000000  0.83743000  1
  C  C203  1  0.79710000  0.88123000  1.00000000  1
  C  C204  1  0.71250000  0.83743000  1.00000000  1
  C  C205  1  0.79710000  0.11877000  0.11877000  1
  C  C206  1  0.71250000  0.16257000  0.16257000  1
  C  C207  1  0.79710000  1.00000000  0.11877000  1
  C  C208  1  0.71250000  1.00000000  0.16257000  1
  C  C209  1  0.79710000  0.11877000  1.00000000  1
  C  C210  1  0.71250000  0.16257000  0.00000000  1
  C  C211  1  0.79710000  0.88123000  0.88123000  1
  C  C212  1  0.71250000  0.83743000  0.83743000  1
  C  C213  1  0.20290000  0.11877000  0.11877000  1
  C  C214  1  0.28750000  0.16257000  0.16257000  1
  C  C215  1  0.20290000  0.88123000  1.00000000  1
  C  C216  1  0.28750000  0.83743000  1.00000000  1
  C  C217  1  0.20290000  1.00000000  0.88123000  1
  C  C218  1  0.28750000  1.00000000  0.83743000  1
  C  C219  1  0.20290000  0.88123000  0.88123000  1
  C  C220  1  0.28750000  0.83743000  0.83743000  1
  C  C221  1  0.20290000  0.11877000  1.00000000  1
  C  C222  1  0.28750000  0.16257000  0.00000000  1
  C  C223  1  0.20290000  1.00000000  0.11877000  1
  C  C224  1  0.28750000  1.00000000  0.16257000  1
  S  S225  1  0.50000000  0.71520000  0.02640000  1
  S  S226  1  0.50000000  0.68880000  0.71520000  1
  S  S227  1  0.50000000  0.28480000  0.31120000  1
  S  S228  1  0.50000000  0.02640000  0.71520000  1
  S  S229  1  0.50000000  0.31120000  0.02640000  1
  S  S230  1  0.50000000  0.97360000  0.28480000  1
  O  O231  1  0.94030000  0.77790000  0.85620000  1
  O  O232  1  0.94030000  0.07830000  0.22210000  1
  O  O233  1  0.94030000  0.14380000  0.92170000  1
  O  O234  1  0.94030000  0.22210000  0.14380000  1
  O  O235  1  0.94030000  0.92170000  0.77790000  1
  O  O236  1  0.94030000  0.85620000  0.07830000  1
  O  O237  1  0.05970000  0.92170000  0.14380000  1
  O  O238  1  0.05970000  0.85620000  0.77790000  1
  O  O239  1  0.05970000  0.22210000  0.07830000  1
  O  O240  1  0.05970000  0.07830000  0.85620000  1
  O  O241  1  0.05970000  0.14380000  0.22210000  1
  O  O242  1  0.05970000  0.77790000  0.92170000  1
  O  O243  1  0.05970000  0.22210000  0.14380000  1
  O  O244  1  0.05970000  0.92170000  0.77790000  1
  O  O245  1  0.05970000  0.85620000  0.07830000  1
  O  O246  1  0.05970000  0.77790000  0.85620000  1
  O  O247  1  0.05970000  0.07830000  0.22210000  1
  O  O248  1  0.05970000  0.14380000  0.92170000  1
  O  O249  1  0.94030000  0.07830000  0.85620000  1
  O  O250  1  0.94030000  0.14380000  0.22210000  1
  O  O251  1  0.94030000  0.77790000  0.92170000  1
  O  O252  1  0.94030000  0.92170000  0.14380000  1
  O  O253  1  0.94030000  0.85620000  0.77790000  1
  O  O254  1  0.94030000  0.22210000  0.07830000  1
  O  O255  1  0.95570000  0.90680000  0.90680000  1
  O  O256  1  0.95570000  1.00000000  0.09320000  1
  O  O257  1  0.95570000  0.09320000  1.00000000  1
  O  O258  1  0.95570000  0.09320000  0.09320000  1
  O  O259  1  0.95570000  1.00000000  0.90680000  1
  O  O260  1  0.95570000  0.90680000  0.00000000  1
  O  O261  1  0.04430000  1.00000000  0.09320000  1
  O  O262  1  0.04430000  0.90680000  0.90680000  1
  O  O263  1  0.04430000  0.09320000  1.00000000  1
  O  O264  1  0.04430000  1.00000000  0.90680000  1
  O  O265  1  0.04430000  0.09320000  0.09320000  1
  O  O266  1  0.04430000  0.90680000  0.00000000  1
  O  O267  1  0.87500000  0.00000000  0.00000000  1
  O  O268  1  0.12500000  0.00000000  0.00000000  1
  O  O269  1  0.81650000  0.92740000  0.85480000  1
  O  O270  1  0.81650000  0.92740000  0.07260000  1
  O  O271  1  0.81650000  0.14520000  0.07260000  1
  O  O272  1  0.81650000  0.07260000  0.14520000  1
  O  O273  1  0.81650000  0.07260000  0.92740000  1
  O  O274  1  0.81650000  0.85480000  0.92740000  1
  O  O275  1  0.18350000  0.07260000  0.14520000  1
  O  O276  1  0.18350000  0.85480000  0.92740000  1
  O  O277  1  0.18350000  0.07260000  0.92740000  1
  O  O278  1  0.18350000  0.92740000  0.85480000  1
  O  O279  1  0.18350000  0.14520000  0.07260000  1
  O  O280  1  0.18350000  0.92740000  0.07260000  1
  O  O281  1  0.50000000  0.03800000  0.66700000  1
  O  O282  1  0.50000000  0.71500000  0.10400000  1
  O  O283  1  0.50000000  0.33300000  0.37100000  1
  O  O284  1  0.50000000  0.96200000  0.33300000  1
  O  O285  1  0.50000000  0.37100000  0.03800000  1
  O  O286  1  0.50000000  0.61100000  0.71500000  1
  O  O287  1  0.50000000  0.28500000  0.38900000  1
  O  O288  1  0.50000000  0.66700000  0.03800000  1
  O  O289  1  0.50000000  0.10400000  0.71500000  1
  O  O290  1  0.50000000  0.62900000  0.66700000  1
  O  O291  1  0.50000000  0.33300000  0.96200000  1
  O  O292  1  0.50000000  0.89600000  0.28500000  1
