# generated using pymatgen
data_Zr3H12C32(OF)12
_symmetry_space_group_name_H-M   'P 1'
_cell_length_a   15.14650000
_cell_length_b   24.26030000
_cell_length_c   24.26030000
_cell_angle_alpha   90.00000000
_cell_angle_beta   90.00000000
_cell_angle_gamma   90.00000000
_symmetry_Int_Tables_number   1
_chemical_formula_structural   Zr3H12C32(OF)12
_chemical_formula_sum   'Zr12 H48 C128 O48 F48'
_cell_volume   8914.65669722
_cell_formula_units_Z   4
loop_
 _symmetry_equiv_pos_site_id
 _symmetry_equiv_pos_as_xyz
  1  'x, y, z'
loop_
 _atom_site_type_symbol
 _atom_site_label
 _atom_site_symmetry_multiplicity
 _atom_site_fract_x
 _atom_site_fract_y
 _atom_site_fract_z
 _atom_site_occupancy
  Zr  Zr0  1  0.00000000  0.50000000  0.10058000  1
  Zr  Zr1  1  0.00000000  0.50000000  0.89942000  1
  Zr  Zr2  1  0.50000000  0.89942000  0.50000000  1
  Zr  Zr3  1  0.50000000  0.10058000  0.50000000  1
  Zr  Zr4  1  0.11608000  0.42719000  0.00000000  1
  Zr  Zr5  1  0.11608000  0.57281000  0.00000000  1
  Zr  Zr6  1  0.61608000  0.00000000  0.42719000  1
  Zr  Zr7  1  0.61608000  0.00000000  0.57281000  1
  Zr  Zr8  1  0.88392000  0.57281000  0.00000000  1
  Zr  Zr9  1  0.88392000  0.42719000  0.00000000  1
  Zr  Zr10  1  0.38392000  0.00000000  0.42719000  1
  Zr  Zr11  1  0.38392000  0.00000000  0.57281000  1
  H  H12  1  0.09369000  0.40720000  0.24208000  1
  H  H13  1  0.26800000  0.33206000  0.12183000  1
  H  H14  1  0.09369000  0.59280000  0.75792000  1
  H  H15  1  0.26800000  0.66794000  0.87817000  1
  H  H16  1  0.59369000  0.75792000  0.40720000  1
  H  H17  1  0.76800000  0.87817000  0.33206000  1
  H  H18  1  0.59369000  0.24208000  0.59280000  1
  H  H19  1  0.76800000  0.12183000  0.66794000  1
  H  H20  1  0.90631000  0.59280000  0.24208000  1
  H  H21  1  0.73200000  0.66794000  0.12183000  1
  H  H22  1  0.90631000  0.40720000  0.75792000  1
  H  H23  1  0.73200000  0.33206000  0.87817000  1
  H  H24  1  0.40631000  0.24208000  0.40720000  1
  H  H25  1  0.23200000  0.12183000  0.33206000  1
  H  H26  1  0.40631000  0.75792000  0.59280000  1
  H  H27  1  0.23200000  0.87817000  0.66794000  1
  H  H28  1  0.90631000  0.59280000  0.75792000  1
  H  H29  1  0.73200000  0.66794000  0.87817000  1
  H  H30  1  0.90631000  0.40720000  0.24208000  1
  H  H31  1  0.73200000  0.33206000  0.12183000  1
  H  H32  1  0.40631000  0.24208000  0.59280000  1
  H  H33  1  0.23200000  0.12183000  0.66794000  1
  H  H34  1  0.40631000  0.75792000  0.40720000  1
  H  H35  1  0.23200000  0.87817000  0.33206000  1
  H  H36  1  0.09369000  0.40720000  0.75792000  1
  H  H37  1  0.26800000  0.33206000  0.87817000  1
  H  H38  1  0.09369000  0.59280000  0.24208000  1
  H  H39  1  0.26800000  0.66794000  0.12183000  1
  H  H40  1  0.59369000  0.75792000  0.59280000  1
  H  H41  1  0.76800000  0.87817000  0.66794000  1
  H  H42  1  0.59369000  0.24208000  0.40720000  1
  H  H43  1  0.76800000  0.12183000  0.33206000  1
  H  H44  1  0.13574000  0.33460000  0.30866000  1
  H  H45  1  0.13574000  0.66540000  0.69134000  1
  H  H46  1  0.63574000  0.69134000  0.33460000  1
  H  H47  1  0.63574000  0.30866000  0.66540000  1
  H  H48  1  0.86426000  0.66540000  0.30866000  1
  H  H49  1  0.67459000  0.26522000  0.80576000  1
  H  H50  1  0.17459000  0.19424000  0.26522000  1
  H  H51  1  0.36426000  0.69134000  0.66540000  1
  H  H52  1  0.67459000  0.73478000  0.80576000  1
  H  H53  1  0.67459000  0.26522000  0.19424000  1
  H  H54  1  0.36426000  0.30866000  0.66540000  1
  H  H55  1  0.17459000  0.80576000  0.26522000  1
  H  H56  1  0.13574000  0.33460000  0.69134000  1
  H  H57  1  0.32541000  0.73478000  0.19424000  1
  H  H58  1  0.63574000  0.69134000  0.66540000  1
  H  H59  1  0.63574000  0.30866000  0.33460000  1
  C  C60  1  0.23370000  0.29720000  0.25560000  1
  C  C61  1  0.16930000  0.33440000  0.26660000  1
  C  C62  1  0.14110000  0.37320000  0.22880000  1
  C  C63  1  0.17110000  0.36990000  0.17560000  1
  C  C64  1  0.23690000  0.33340000  0.16460000  1
  C  C65  1  0.27040000  0.29580000  0.20390000  1
  C  C66  1  0.13890000  0.40680000  0.13350000  1
  C  C67  1  0.35450000  0.24740000  0.17670000  1
  C  C68  1  0.23370000  0.70280000  0.74440000  1
  C  C69  1  0.16930000  0.66560000  0.73340000  1
  C  C70  1  0.14110000  0.62680000  0.77120000  1
  C  C71  1  0.17110000  0.63010000  0.82440000  1
  C  C72  1  0.23690000  0.66666667  0.83540000  1
  C  C73  1  0.27040000  0.70420000  0.79610000  1
  C  C74  1  0.13890000  0.59320000  0.86650000  1
  C  C75  1  0.35450000  0.75260000  0.82330000  1
  C  C76  1  0.73370000  0.74440000  0.29720000  1
  C  C77  1  0.66930000  0.73340000  0.33440000  1
  C  C78  1  0.64110000  0.77120000  0.37320000  1
  C  C79  1  0.67110000  0.82440000  0.36990000  1
  C  C80  1  0.73690000  0.83540000  0.33340000  1
  C  C81  1  0.77040000  0.79610000  0.29580000  1
  C  C82  1  0.63890000  0.86650000  0.40680000  1
  C  C83  1  0.85450000  0.82330000  0.24740000  1
  C  C84  1  0.73370000  0.25560000  0.70280000  1
  C  C85  1  0.66930000  0.26660000  0.66560000  1
  C  C86  1  0.64110000  0.22880000  0.62680000  1
  C  C87  1  0.67110000  0.17560000  0.63010000  1
  C  C88  1  0.73690000  0.16460000  0.66666667  1
  C  C89  1  0.77040000  0.20390000  0.70420000  1
  C  C90  1  0.63890000  0.13350000  0.59320000  1
  C  C91  1  0.85450000  0.17670000  0.75260000  1
  C  C92  1  0.76630000  0.70280000  0.25560000  1
  C  C93  1  0.83070000  0.66560000  0.26660000  1
  C  C94  1  0.85890000  0.62680000  0.22880000  1
  C  C95  1  0.82890000  0.63010000  0.17560000  1
  C  C96  1  0.76310000  0.66666667  0.16460000  1
  C  C97  1  0.72960000  0.70420000  0.20390000  1
  C  C98  1  0.86110000  0.59320000  0.13350000  1
  C  C99  1  0.64550000  0.75260000  0.17670000  1
  C  C100  1  0.76630000  0.29720000  0.74440000  1
  C  C101  1  0.83070000  0.33440000  0.73340000  1
  C  C102  1  0.85890000  0.37320000  0.77120000  1
  C  C103  1  0.82890000  0.36990000  0.82440000  1
  C  C104  1  0.76310000  0.33340000  0.83540000  1
  C  C105  1  0.72960000  0.29580000  0.79610000  1
  C  C106  1  0.86110000  0.40680000  0.86650000  1
  C  C107  1  0.89120000  0.33300000  0.66810000  1
  C  C108  1  0.26630000  0.25560000  0.29720000  1
  C  C109  1  0.33070000  0.26660000  0.33440000  1
  C  C110  1  0.35890000  0.22880000  0.37320000  1
  C  C111  1  0.32890000  0.17560000  0.36990000  1
  C  C112  1  0.26310000  0.16460000  0.33340000  1
  C  C113  1  0.22960000  0.20390000  0.29580000  1
  C  C114  1  0.36110000  0.13350000  0.40680000  1
  C  C115  1  0.39120000  0.33190000  0.33300000  1
  C  C116  1  0.26630000  0.74440000  0.70280000  1
  C  C117  1  0.33070000  0.73340000  0.66560000  1
  C  C118  1  0.35890000  0.77120000  0.62680000  1
  C  C119  1  0.32890000  0.82440000  0.63010000  1
  C  C120  1  0.26310000  0.83540000  0.66666667  1
  C  C121  1  0.22960000  0.79610000  0.70420000  1
  C  C122  1  0.36110000  0.86650000  0.59320000  1
  C  C123  1  0.14550000  0.82330000  0.75260000  1
  C  C124  1  0.76630000  0.70280000  0.74440000  1
  C  C125  1  0.83070000  0.66560000  0.73340000  1
  C  C126  1  0.85890000  0.62680000  0.77120000  1
  C  C127  1  0.82890000  0.63010000  0.82440000  1
  C  C128  1  0.76310000  0.66666667  0.83540000  1
  C  C129  1  0.72960000  0.70420000  0.79610000  1
  C  C130  1  0.86110000  0.59320000  0.86650000  1
  C  C131  1  0.89120000  0.66700000  0.66810000  1
  C  C132  1  0.76630000  0.29720000  0.25560000  1
  C  C133  1  0.83070000  0.33440000  0.26660000  1
  C  C134  1  0.85890000  0.37320000  0.22880000  1
  C  C135  1  0.82890000  0.36990000  0.17560000  1
  C  C136  1  0.76310000  0.33340000  0.16460000  1
  C  C137  1  0.72960000  0.29580000  0.20390000  1
  C  C138  1  0.86110000  0.40680000  0.13350000  1
  C  C139  1  0.89120000  0.33300000  0.33190000  1
  C  C140  1  0.26630000  0.25560000  0.70280000  1
  C  C141  1  0.33070000  0.26660000  0.66560000  1
  C  C142  1  0.35890000  0.22880000  0.62680000  1
  C  C143  1  0.32890000  0.17560000  0.63010000  1
  C  C144  1  0.26310000  0.16460000  0.66666667  1
  C  C145  1  0.22960000  0.20390000  0.70420000  1
  C  C146  1  0.36110000  0.13350000  0.59320000  1
  C  C147  1  0.14550000  0.17670000  0.75260000  1
  C  C148  1  0.26630000  0.74440000  0.29720000  1
  C  C149  1  0.33070000  0.73340000  0.33440000  1
  C  C150  1  0.35890000  0.77120000  0.37320000  1
  C  C151  1  0.32890000  0.82440000  0.36990000  1
  C  C152  1  0.26310000  0.83540000  0.33340000  1
  C  C153  1  0.22960000  0.79610000  0.29580000  1
  C  C154  1  0.36110000  0.86650000  0.40680000  1
  C  C155  1  0.39120000  0.66810000  0.33300000  1
  C  C156  1  0.23370000  0.29720000  0.74440000  1
  C  C157  1  0.16930000  0.33440000  0.73340000  1
  C  C158  1  0.14110000  0.37320000  0.77120000  1
  C  C159  1  0.17110000  0.36990000  0.82440000  1
  C  C160  1  0.23690000  0.33340000  0.83540000  1
  C  C161  1  0.27040000  0.29580000  0.79610000  1
  C  C162  1  0.13890000  0.40680000  0.86650000  1
  C  C163  1  0.35450000  0.24740000  0.82330000  1
  C  C164  1  0.23370000  0.70280000  0.25560000  1
  C  C165  1  0.16930000  0.66560000  0.26660000  1
  C  C166  1  0.14110000  0.62680000  0.22880000  1
  C  C167  1  0.17110000  0.63010000  0.17560000  1
  C  C168  1  0.23690000  0.66666667  0.16460000  1
  C  C169  1  0.27040000  0.70420000  0.20390000  1
  C  C170  1  0.13890000  0.59320000  0.13350000  1
  C  C171  1  0.10880000  0.66700000  0.33190000  1
  C  C172  1  0.73370000  0.74440000  0.70280000  1
  C  C173  1  0.66930000  0.73340000  0.66560000  1
  C  C174  1  0.64110000  0.77120000  0.62680000  1
  C  C175  1  0.67110000  0.82440000  0.63010000  1
  C  C176  1  0.73690000  0.83540000  0.66666667  1
  C  C177  1  0.77040000  0.79610000  0.70420000  1
  C  C178  1  0.63890000  0.86650000  0.59320000  1
  C  C179  1  0.85450000  0.82330000  0.75260000  1
  C  C180  1  0.73370000  0.25560000  0.29720000  1
  C  C181  1  0.66930000  0.26660000  0.33440000  1
  C  C182  1  0.64110000  0.22880000  0.37320000  1
  C  C183  1  0.67110000  0.17560000  0.36990000  1
  C  C184  1  0.73690000  0.16460000  0.33340000  1
  C  C185  1  0.77040000  0.20390000  0.29580000  1
  C  C186  1  0.63890000  0.13350000  0.40680000  1
  C  C187  1  0.85450000  0.17670000  0.24740000  1
  O  O188  1  0.08590000  0.44490000  0.14881000  1
  O  O189  1  0.16150000  0.39700000  0.08310000  1
  O  O190  1  0.08590000  0.55510000  0.85119000  1
  O  O191  1  0.16150000  0.60300000  0.91690000  1
  O  O192  1  0.58590000  0.85119000  0.44490000  1
  O  O193  1  0.66150000  0.91690000  0.39700000  1
  O  O194  1  0.58590000  0.14881000  0.55510000  1
  O  O195  1  0.66150000  0.08310000  0.60300000  1
  O  O196  1  0.91410000  0.55510000  0.14881000  1
  O  O197  1  0.83850000  0.60300000  0.08310000  1
  O  O198  1  0.91410000  0.44490000  0.85119000  1
  O  O199  1  0.83850000  0.39700000  0.91690000  1
  O  O200  1  0.41410000  0.14881000  0.44490000  1
  O  O201  1  0.33850000  0.08310000  0.39700000  1
  O  O202  1  0.41410000  0.85119000  0.55510000  1
  O  O203  1  0.33850000  0.91690000  0.60300000  1
  O  O204  1  0.91410000  0.55510000  0.85119000  1
  O  O205  1  0.83850000  0.60300000  0.91690000  1
  O  O206  1  0.91410000  0.44490000  0.14881000  1
  O  O207  1  0.83850000  0.39700000  0.08310000  1
  O  O208  1  0.41410000  0.14881000  0.55510000  1
  O  O209  1  0.33850000  0.08310000  0.60300000  1
  O  O210  1  0.41410000  0.85119000  0.44490000  1
  O  O211  1  0.33850000  0.91690000  0.39700000  1
  O  O212  1  0.08590000  0.44490000  0.85119000  1
  O  O213  1  0.16150000  0.39700000  0.91690000  1
  O  O214  1  0.08590000  0.55510000  0.14881000  1
  O  O215  1  0.16150000  0.60300000  0.08310000  1
  O  O216  1  0.58590000  0.85119000  0.55510000  1
  O  O217  1  0.66150000  0.91690000  0.60300000  1
  O  O218  1  0.58590000  0.14881000  0.44490000  1
  O  O219  1  0.66150000  0.08310000  0.39700000  1
  O  O220  1  0.00000000  0.42610000  0.05010000  1
  O  O221  1  0.00000000  0.57390000  0.94990000  1
  O  O222  1  0.50000000  0.94990000  0.42610000  1
  O  O223  1  0.50000000  0.05010000  0.57390000  1
  O  O224  1  0.00000000  0.57390000  0.05010000  1
  O  O225  1  0.00000000  0.42610000  0.94990000  1
  O  O226  1  0.50000000  0.05010000  0.42610000  1
  O  O227  1  0.50000000  0.94990000  0.57390000  1
  O  O228  1  0.11440000  0.50000000  0.04850000  1
  O  O229  1  0.11440000  0.50000000  0.95150000  1
  O  O230  1  0.61440000  0.95150000  0.50000000  1
  O  O231  1  0.61440000  0.04850000  0.50000000  1
  O  O232  1  0.88560000  0.50000000  0.04850000  1
  O  O233  1  0.88560000  0.50000000  0.95150000  1
  O  O234  1  0.38560000  0.04850000  0.50000000  1
  O  O235  1  0.38560000  0.95150000  0.50000000  1
  F  F236  1  0.37000000  0.26770000  0.12670000  1
  F  F237  1  0.41910000  0.25410000  0.21330000  1
  F  F238  1  0.31100000  0.19990000  0.17780000  1
  F  F239  1  0.37000000  0.73230000  0.87330000  1
  F  F240  1  0.41910000  0.74590000  0.78670000  1
  F  F241  1  0.31100000  0.80010000  0.82220000  1
  F  F242  1  0.87000000  0.87330000  0.26770000  1
  F  F243  1  0.91910000  0.78670000  0.25410000  1
  F  F244  1  0.81100000  0.82220000  0.19990000  1
  F  F245  1  0.87000000  0.12670000  0.73230000  1
  F  F246  1  0.91910000  0.21330000  0.74590000  1
  F  F247  1  0.81100000  0.17780000  0.80010000  1
  F  F248  1  0.63000000  0.73230000  0.12670000  1
  F  F249  1  0.58090000  0.74590000  0.21330000  1
  F  F250  1  0.68900000  0.80010000  0.17780000  1
  F  F251  1  0.95010000  0.37390000  0.67460000  1
  F  F252  1  0.92670000  0.28300000  0.66790000  1
  F  F253  1  0.82650000  0.34250000  0.63240000  1
  F  F254  1  0.45010000  0.32540000  0.37390000  1
  F  F255  1  0.42670000  0.33210000  0.28300000  1
  F  F256  1  0.32650000  0.36760000  0.34250000  1
  F  F257  1  0.13000000  0.87330000  0.73230000  1
  F  F258  1  0.08090000  0.78670000  0.74590000  1
  F  F259  1  0.18900000  0.82220000  0.80010000  1
  F  F260  1  0.95010000  0.62610000  0.67460000  1
  F  F261  1  0.92670000  0.71700000  0.66790000  1
  F  F262  1  0.82650000  0.65750000  0.63240000  1
  F  F263  1  0.95010000  0.37390000  0.32540000  1
  F  F264  1  0.92670000  0.28300000  0.33210000  1
  F  F265  1  0.82650000  0.34250000  0.36760000  1
  F  F266  1  0.13000000  0.12670000  0.73230000  1
  F  F267  1  0.08090000  0.21330000  0.74590000  1
  F  F268  1  0.18900000  0.17780000  0.80010000  1
  F  F269  1  0.45010000  0.67460000  0.37390000  1
  F  F270  1  0.42670000  0.66790000  0.28300000  1
  F  F271  1  0.32650000  0.63240000  0.34250000  1
  F  F272  1  0.37000000  0.26770000  0.87330000  1
  F  F273  1  0.41910000  0.25410000  0.78670000  1
  F  F274  1  0.31100000  0.19990000  0.82220000  1
  F  F275  1  0.04990000  0.62610000  0.32540000  1
  F  F276  1  0.07330000  0.71700000  0.33210000  1
  F  F277  1  0.17350000  0.65750000  0.36760000  1
  F  F278  1  0.87000000  0.87330000  0.73230000  1
  F  F279  1  0.91910000  0.78670000  0.74590000  1
  F  F280  1  0.81100000  0.82220000  0.80010000  1
  F  F281  1  0.87000000  0.12670000  0.26770000  1
  F  F282  1  0.91910000  0.21330000  0.25410000  1
  F  F283  1  0.81100000  0.17780000  0.19990000  1
