# generated using pymatgen
data_Zr3H12C32(OF)12
_symmetry_space_group_name_H-M   'P 1'
_cell_length_a   12.05920000
_cell_length_b   34.91950000
_cell_length_c   34.91950000
_cell_angle_alpha   90.00000000
_cell_angle_beta   90.00000000
_cell_angle_gamma   90.00000000
_symmetry_Int_Tables_number   1
_chemical_formula_structural   Zr3H12C32(OF)12
_chemical_formula_sum   'Zr24 H96 C256 O96 F96'
_cell_volume   14704.64455463
_cell_formula_units_Z   8
loop_
 _symmetry_equiv_pos_site_id
 _symmetry_equiv_pos_as_xyz
  1  'x, y, z'
loop_
 _atom_site_type_symbol
 _atom_site_label
 _atom_site_symmetry_multiplicity
 _atom_site_fract_x
 _atom_site_fract_y
 _atom_site_fract_z
 _atom_site_occupancy
  Zr  Zr0  1  0.50000000  0.04973000  0.54973000  1
  Zr  Zr1  1  0.50000000  0.45027000  0.95027000  1
  Zr  Zr2  1  0.00000000  0.95027000  0.04973000  1
  Zr  Zr3  1  0.00000000  0.54973000  0.45027000  1
  Zr  Zr4  1  0.50000000  0.95027000  0.45027000  1
  Zr  Zr5  1  0.50000000  0.54973000  0.04973000  1
  Zr  Zr6  1  0.00000000  0.04973000  0.95027000  1
  Zr  Zr7  1  0.00000000  0.45027000  0.54973000  1
  Zr  Zr8  1  0.40498000  0.04510000  0.45490000  1
  Zr  Zr9  1  0.68417000  0.02315000  0.47685000  1
  Zr  Zr10  1  0.40498000  0.45490000  0.04510000  1
  Zr  Zr11  1  0.68417000  0.47685000  0.02315000  1
  Zr  Zr12  1  0.90498000  0.04510000  0.04510000  1
  Zr  Zr13  1  0.18417000  0.02315000  0.02315000  1
  Zr  Zr14  1  0.90498000  0.45490000  0.45490000  1
  Zr  Zr15  1  0.18417000  0.47685000  0.47685000  1
  Zr  Zr16  1  0.09502000  0.95490000  0.95490000  1
  Zr  Zr17  1  0.81583000  0.97685000  0.97685000  1
  Zr  Zr18  1  0.09502000  0.54510000  0.54510000  1
  Zr  Zr19  1  0.81583000  0.52315000  0.52315000  1
  Zr  Zr20  1  0.59502000  0.95490000  0.54510000  1
  Zr  Zr21  1  0.31583000  0.97685000  0.52315000  1
  Zr  Zr22  1  0.59502000  0.54510000  0.95490000  1
  Zr  Zr23  1  0.31583000  0.52315000  0.97685000  1
  H  H24  1  0.90697000  0.12571000  0.49837000  1
  H  H25  1  0.61068000  0.15873000  0.55965000  1
  H  H26  1  0.92313000  0.33634000  0.57017000  1
  H  H27  1  0.81492000  0.33125000  0.45357000  1
  H  H28  1  0.96631000  0.19423000  0.49255000  1
  H  H29  1  0.90017000  0.26426000  0.57924000  1
  H  H30  1  0.90697000  0.37429000  0.00163000  1
  H  H31  1  0.61068000  0.34127000  0.94035000  1
  H  H32  1  0.92313000  0.16366000  0.92983000  1
  H  H33  1  0.81492000  0.16875000  0.04643000  1
  H  H34  1  0.96631000  0.30577000  0.00745000  1
  H  H35  1  0.90017000  0.23574000  0.92076000  1
  H  H36  1  0.40697000  0.00163000  0.12571000  1
  H  H37  1  0.11068000  0.94035000  0.15873000  1
  H  H38  1  0.42313000  0.92983000  0.33634000  1
  H  H39  1  0.31492000  0.04643000  0.33125000  1
  H  H40  1  0.46631000  0.00745000  0.19423000  1
  H  H41  1  0.40017000  0.92076000  0.26426000  1
  H  H42  1  0.40697000  0.49837000  0.37429000  1
  H  H43  1  0.11068000  0.55965000  0.34127000  1
  H  H44  1  0.42313000  0.57017000  0.16366000  1
  H  H45  1  0.31492000  0.45357000  0.16875000  1
  H  H46  1  0.46631000  0.49255000  0.30577000  1
  H  H47  1  0.40017000  0.57924000  0.23574000  1
  H  H48  1  0.59303000  0.87429000  0.99837000  1
  H  H49  1  0.88932000  0.84127000  0.05965000  1
  H  H50  1  0.57687000  0.66366000  0.07017000  1
  H  H51  1  0.68508000  0.66875000  0.95357000  1
  H  H52  1  0.53369000  0.80577000  0.99255000  1
  H  H53  1  0.59983000  0.73574000  0.07924000  1
  H  H54  1  0.59303000  0.62571000  0.50163000  1
  H  H55  1  0.88932000  0.65873000  0.44035000  1
  H  H56  1  0.57687000  0.83634000  0.42983000  1
  H  H57  1  0.68508000  0.83125000  0.54643000  1
  H  H58  1  0.53369000  0.69423000  0.50745000  1
  H  H59  1  0.59983000  0.76426000  0.42076000  1
  H  H60  1  0.09303000  0.99837000  0.62571000  1
  H  H61  1  0.38932000  0.05965000  0.65873000  1
  H  H62  1  0.07687000  0.07017000  0.83634000  1
  H  H63  1  0.18508000  0.95357000  0.83125000  1
  H  H64  1  0.03369000  0.99255000  0.69423000  1
  H  H65  1  0.09983000  0.07924000  0.76426000  1
  H  H66  1  0.09303000  0.50163000  0.87429000  1
  H  H67  1  0.38932000  0.44035000  0.84127000  1
  H  H68  1  0.07687000  0.42983000  0.66366000  1
  H  H69  1  0.18508000  0.54643000  0.66875000  1
  H  H70  1  0.03369000  0.50745000  0.80577000  1
  H  H71  1  0.09983000  0.42076000  0.73574000  1
  H  H72  1  0.09303000  0.87429000  0.50163000  1
  H  H73  1  0.38932000  0.84127000  0.44035000  1
  H  H74  1  0.07687000  0.66366000  0.42983000  1
  H  H75  1  0.18508000  0.66875000  0.54643000  1
  H  H76  1  0.03369000  0.80577000  0.50745000  1
  H  H77  1  0.09983000  0.73574000  0.42076000  1
  H  H78  1  0.09303000  0.62571000  0.99837000  1
  H  H79  1  0.38932000  0.65873000  0.05965000  1
  H  H80  1  0.07687000  0.83634000  0.07017000  1
  H  H81  1  0.18508000  0.83125000  0.95357000  1
  H  H82  1  0.03369000  0.69423000  0.99255000  1
  H  H83  1  0.09983000  0.76426000  0.07924000  1
  H  H84  1  0.59303000  0.99837000  0.87429000  1
  H  H85  1  0.88932000  0.05965000  0.84127000  1
  H  H86  1  0.57687000  0.07017000  0.66366000  1
  H  H87  1  0.68508000  0.95357000  0.66875000  1
  H  H88  1  0.53369000  0.99255000  0.80577000  1
  H  H89  1  0.59983000  0.07924000  0.73574000  1
  H  H90  1  0.59303000  0.50163000  0.62571000  1
  H  H91  1  0.88932000  0.44035000  0.65873000  1
  H  H92  1  0.57687000  0.42983000  0.83634000  1
  H  H93  1  0.68508000  0.54643000  0.83125000  1
  H  H94  1  0.53369000  0.50745000  0.69423000  1
  H  H95  1  0.59983000  0.42076000  0.76426000  1
  H  H96  1  0.40697000  0.12571000  0.00163000  1
  H  H97  1  0.11068000  0.15873000  0.94035000  1
  H  H98  1  0.42313000  0.33634000  0.92983000  1
  H  H99  1  0.31492000  0.33125000  0.04643000  1
  H  H100  1  0.46631000  0.19423000  0.00745000  1
  H  H101  1  0.40017000  0.26426000  0.92076000  1
  H  H102  1  0.40697000  0.37429000  0.49837000  1
  H  H103  1  0.11068000  0.34127000  0.55965000  1
  H  H104  1  0.42313000  0.16366000  0.57017000  1
  H  H105  1  0.31492000  0.16875000  0.45357000  1
  H  H106  1  0.46631000  0.30577000  0.49255000  1
  H  H107  1  0.40017000  0.23574000  0.57924000  1
  H  H108  1  0.90697000  0.00163000  0.37429000  1
  H  H109  1  0.61068000  0.94035000  0.34127000  1
  H  H110  1  0.92313000  0.92983000  0.16366000  1
  H  H111  1  0.81492000  0.04643000  0.16875000  1
  H  H112  1  0.96631000  0.00745000  0.30577000  1
  H  H113  1  0.90017000  0.92076000  0.23574000  1
  H  H114  1  0.90697000  0.49837000  0.12571000  1
  H  H115  1  0.61068000  0.55965000  0.15873000  1
  H  H116  1  0.92313000  0.57017000  0.33634000  1
  H  H117  1  0.81492000  0.45357000  0.33125000  1
  H  H118  1  0.96631000  0.49255000  0.19423000  1
  H  H119  1  0.90017000  0.57924000  0.26426000  1
  C  C120  1  0.71610000  0.09780000  0.53160000  1
  C  C121  1  0.75630000  0.13880000  0.53000000  1
  C  C122  1  0.85200000  0.14880000  0.51150000  1
  C  C123  1  0.88570000  0.18700000  0.50800000  1
  C  C124  1  0.81870000  0.21500000  0.52370000  1
  C  C125  1  0.72230000  0.20440000  0.54230000  1
  C  C126  1  0.69180000  0.16650000  0.54480000  1
  C  C127  1  0.84050000  0.25670000  0.52020000  1
  C  C128  1  0.87950000  0.27860000  0.55080000  1
  C  C129  1  0.89210000  0.31770000  0.54560000  1
  C  C130  1  0.87040000  0.33670000  0.51300000  1
  C  C131  1  0.83180000  0.31610000  0.48190000  1
  C  C132  1  0.81360000  0.27610000  0.48570000  1
  C  C133  1  0.88900000  0.37800000  0.50980000  1
  C  C134  1  0.79400000  0.25440000  0.45110000  1
  C  C135  1  0.64400000  0.23450000  0.55400000  1
  C  C136  1  0.71610000  0.40220000  0.96840000  1
  C  C137  1  0.75630000  0.36120000  0.97000000  1
  C  C138  1  0.85200000  0.35120000  0.98850000  1
  C  C139  1  0.88570000  0.31300000  0.99200000  1
  C  C140  1  0.81870000  0.28500000  0.97630000  1
  C  C141  1  0.72230000  0.29560000  0.95770000  1
  C  C142  1  0.69180000  0.33350000  0.95520000  1
  C  C143  1  0.84050000  0.24330000  0.97980000  1
  C  C144  1  0.87950000  0.22140000  0.94920000  1
  C  C145  1  0.89210000  0.18230000  0.95440000  1
  C  C146  1  0.87040000  0.16330000  0.98700000  1
  C  C147  1  0.83180000  0.18390000  0.01810000  1
  C  C148  1  0.81360000  0.22390000  0.01430000  1
  C  C149  1  0.88900000  0.12200000  0.99020000  1
  C  C150  1  0.79400000  0.24560000  0.04890000  1
  C  C151  1  0.64400000  0.26550000  0.94600000  1
  C  C152  1  0.21610000  0.96840000  0.09780000  1
  C  C153  1  0.25630000  0.97000000  0.13880000  1
  C  C154  1  0.35200000  0.98850000  0.14880000  1
  C  C155  1  0.38570000  0.99200000  0.18700000  1
  C  C156  1  0.31870000  0.97630000  0.21500000  1
  C  C157  1  0.22230000  0.95770000  0.20440000  1
  C  C158  1  0.19180000  0.95520000  0.16650000  1
  C  C159  1  0.34050000  0.97980000  0.25670000  1
  C  C160  1  0.37950000  0.94920000  0.27860000  1
  C  C161  1  0.39210000  0.95440000  0.31770000  1
  C  C162  1  0.37040000  0.98700000  0.33670000  1
  C  C163  1  0.33180000  0.01810000  0.31610000  1
  C  C164  1  0.31360000  0.01430000  0.27610000  1
  C  C165  1  0.38900000  0.99020000  0.37800000  1
  C  C166  1  0.29400000  0.04890000  0.25440000  1
  C  C167  1  0.14400000  0.94600000  0.23450000  1
  C  C168  1  0.21610000  0.53160000  0.40220000  1
  C  C169  1  0.25630000  0.53000000  0.36120000  1
  C  C170  1  0.35200000  0.51150000  0.35120000  1
  C  C171  1  0.38570000  0.50800000  0.31300000  1
  C  C172  1  0.31870000  0.52370000  0.28500000  1
  C  C173  1  0.22230000  0.54230000  0.29560000  1
  C  C174  1  0.19180000  0.54480000  0.33350000  1
  C  C175  1  0.34050000  0.52020000  0.24330000  1
  C  C176  1  0.37950000  0.55080000  0.22140000  1
  C  C177  1  0.39210000  0.54560000  0.18230000  1
  C  C178  1  0.37040000  0.51300000  0.16330000  1
  C  C179  1  0.33180000  0.48190000  0.18390000  1
  C  C180  1  0.31360000  0.48570000  0.22390000  1
  C  C181  1  0.38900000  0.50980000  0.12200000  1
  C  C182  1  0.29400000  0.45110000  0.24560000  1
  C  C183  1  0.14400000  0.55400000  0.26550000  1
  C  C184  1  0.78390000  0.90220000  0.03160000  1
  C  C185  1  0.74370000  0.86120000  0.03000000  1
  C  C186  1  0.64800000  0.85120000  0.01150000  1
  C  C187  1  0.61430000  0.81300000  0.00800000  1
  C  C188  1  0.68130000  0.78500000  0.02370000  1
  C  C189  1  0.77770000  0.79560000  0.04230000  1
  C  C190  1  0.80820000  0.83350000  0.04480000  1
  C  C191  1  0.65950000  0.74330000  0.02020000  1
  C  C192  1  0.62050000  0.72140000  0.05080000  1
  C  C193  1  0.60790000  0.68230000  0.04560000  1
  C  C194  1  0.62960000  0.66330000  0.01300000  1
  C  C195  1  0.66820000  0.68390000  0.98190000  1
  C  C196  1  0.68640000  0.72390000  0.98570000  1
  C  C197  1  0.61100000  0.62200000  0.00980000  1
  C  C198  1  0.70600000  0.74560000  0.95110000  1
  C  C199  1  0.85600000  0.76550000  0.05400000  1
  C  C200  1  0.78390000  0.59780000  0.46840000  1
  C  C201  1  0.74370000  0.63880000  0.47000000  1
  C  C202  1  0.64800000  0.64880000  0.48850000  1
  C  C203  1  0.61430000  0.68700000  0.49200000  1
  C  C204  1  0.68130000  0.71500000  0.47630000  1
  C  C205  1  0.77770000  0.70440000  0.45770000  1
  C  C206  1  0.80820000  0.66650000  0.45520000  1
  C  C207  1  0.65950000  0.75670000  0.47980000  1
  C  C208  1  0.62050000  0.77860000  0.44920000  1
  C  C209  1  0.60790000  0.81770000  0.45440000  1
  C  C210  1  0.62960000  0.83670000  0.48700000  1
  C  C211  1  0.66820000  0.81610000  0.51810000  1
  C  C212  1  0.68640000  0.77610000  0.51430000  1
  C  C213  1  0.61100000  0.87800000  0.49020000  1
  C  C214  1  0.70600000  0.75440000  0.54890000  1
  C  C215  1  0.85600000  0.73450000  0.44600000  1
  C  C216  1  0.28390000  0.03160000  0.59780000  1
  C  C217  1  0.24370000  0.03000000  0.63880000  1
  C  C218  1  0.14800000  0.01150000  0.64880000  1
  C  C219  1  0.11430000  0.00800000  0.68700000  1
  C  C220  1  0.18130000  0.02370000  0.71500000  1
  C  C221  1  0.27770000  0.04230000  0.70440000  1
  C  C222  1  0.30820000  0.04480000  0.66650000  1
  C  C223  1  0.15950000  0.02020000  0.75670000  1
  C  C224  1  0.12050000  0.05080000  0.77860000  1
  C  C225  1  0.10790000  0.04560000  0.81770000  1
  C  C226  1  0.12960000  0.01300000  0.83670000  1
  C  C227  1  0.16820000  0.98190000  0.81610000  1
  C  C228  1  0.18640000  0.98570000  0.77610000  1
  C  C229  1  0.11100000  0.00980000  0.87800000  1
  C  C230  1  0.20600000  0.95110000  0.75440000  1
  C  C231  1  0.35600000  0.05400000  0.73450000  1
  C  C232  1  0.28390000  0.46840000  0.90220000  1
  C  C233  1  0.24370000  0.47000000  0.86120000  1
  C  C234  1  0.14800000  0.48850000  0.85120000  1
  C  C235  1  0.11430000  0.49200000  0.81300000  1
  C  C236  1  0.18130000  0.47630000  0.78500000  1
  C  C237  1  0.27770000  0.45770000  0.79560000  1
  C  C238  1  0.30820000  0.45520000  0.83350000  1
  C  C239  1  0.15950000  0.47980000  0.74330000  1
  C  C240  1  0.12050000  0.44920000  0.72140000  1
  C  C241  1  0.10790000  0.45440000  0.68230000  1
  C  C242  1  0.12960000  0.48700000  0.66330000  1
  C  C243  1  0.16820000  0.51810000  0.68390000  1
  C  C244  1  0.18640000  0.51430000  0.72390000  1
  C  C245  1  0.11100000  0.49020000  0.62200000  1
  C  C246  1  0.20600000  0.54890000  0.74560000  1
  C  C247  1  0.35600000  0.44600000  0.76550000  1
  C  C248  1  0.28390000  0.90220000  0.46840000  1
  C  C249  1  0.24370000  0.86120000  0.47000000  1
  C  C250  1  0.14800000  0.85120000  0.48850000  1
  C  C251  1  0.11430000  0.81300000  0.49200000  1
  C  C252  1  0.18130000  0.78500000  0.47630000  1
  C  C253  1  0.27770000  0.79560000  0.45770000  1
  C  C254  1  0.30820000  0.83350000  0.45520000  1
  C  C255  1  0.15950000  0.74330000  0.47980000  1
  C  C256  1  0.12050000  0.72140000  0.44920000  1
  C  C257  1  0.10790000  0.68230000  0.45440000  1
  C  C258  1  0.12960000  0.66330000  0.48700000  1
  C  C259  1  0.16820000  0.68390000  0.51810000  1
  C  C260  1  0.18640000  0.72390000  0.51430000  1
  C  C261  1  0.11100000  0.62200000  0.49020000  1
  C  C262  1  0.20600000  0.74560000  0.54890000  1
  C  C263  1  0.35600000  0.76550000  0.44600000  1
  C  C264  1  0.28390000  0.59780000  0.03160000  1
  C  C265  1  0.24370000  0.63880000  0.03000000  1
  C  C266  1  0.14800000  0.64880000  0.01150000  1
  C  C267  1  0.11430000  0.68700000  0.00800000  1
  C  C268  1  0.18130000  0.71500000  0.02370000  1
  C  C269  1  0.27770000  0.70440000  0.04230000  1
  C  C270  1  0.30820000  0.66650000  0.04480000  1
  C  C271  1  0.15950000  0.75670000  0.02020000  1
  C  C272  1  0.12050000  0.77860000  0.05080000  1
  C  C273  1  0.10790000  0.81770000  0.04560000  1
  C  C274  1  0.12960000  0.83670000  0.01300000  1
  C  C275  1  0.16820000  0.81610000  0.98190000  1
  C  C276  1  0.18640000  0.77610000  0.98570000  1
  C  C277  1  0.11100000  0.87800000  0.00980000  1
  C  C278  1  0.20600000  0.75440000  0.95110000  1
  C  C279  1  0.35600000  0.73450000  0.05400000  1
  C  C280  1  0.78390000  0.03160000  0.90220000  1
  C  C281  1  0.74370000  0.03000000  0.86120000  1
  C  C282  1  0.64800000  0.01150000  0.85120000  1
  C  C283  1  0.61430000  0.00800000  0.81300000  1
  C  C284  1  0.68130000  0.02370000  0.78500000  1
  C  C285  1  0.77770000  0.04230000  0.79560000  1
  C  C286  1  0.80820000  0.04480000  0.83350000  1
  C  C287  1  0.65950000  0.02020000  0.74330000  1
  C  C288  1  0.62050000  0.05080000  0.72140000  1
  C  C289  1  0.60790000  0.04560000  0.68230000  1
  C  C290  1  0.62960000  0.01300000  0.66330000  1
  C  C291  1  0.66820000  0.98190000  0.68390000  1
  C  C292  1  0.68640000  0.98570000  0.72390000  1
  C  C293  1  0.61100000  0.00980000  0.62200000  1
  C  C294  1  0.70600000  0.95110000  0.74560000  1
  C  C295  1  0.85600000  0.05400000  0.76550000  1
  C  C296  1  0.78390000  0.46840000  0.59780000  1
  C  C297  1  0.74370000  0.47000000  0.63880000  1
  C  C298  1  0.64800000  0.48850000  0.64880000  1
  C  C299  1  0.61430000  0.49200000  0.68700000  1
  C  C300  1  0.68130000  0.47630000  0.71500000  1
  C  C301  1  0.77770000  0.45770000  0.70440000  1
  C  C302  1  0.80820000  0.45520000  0.66650000  1
  C  C303  1  0.65950000  0.47980000  0.75670000  1
  C  C304  1  0.62050000  0.44920000  0.77860000  1
  C  C305  1  0.60790000  0.45440000  0.81770000  1
  C  C306  1  0.62960000  0.48700000  0.83670000  1
  C  C307  1  0.66820000  0.51810000  0.81610000  1
  C  C308  1  0.68640000  0.51430000  0.77610000  1
  C  C309  1  0.61100000  0.49020000  0.87800000  1
  C  C310  1  0.70600000  0.54890000  0.75440000  1
  C  C311  1  0.85600000  0.44600000  0.73450000  1
  C  C312  1  0.21610000  0.09780000  0.96840000  1
  C  C313  1  0.25630000  0.13880000  0.97000000  1
  C  C314  1  0.35200000  0.14880000  0.98850000  1
  C  C315  1  0.38570000  0.18700000  0.99200000  1
  C  C316  1  0.31870000  0.21500000  0.97630000  1
  C  C317  1  0.22230000  0.20440000  0.95770000  1
  C  C318  1  0.19180000  0.16650000  0.95520000  1
  C  C319  1  0.34050000  0.25670000  0.97980000  1
  C  C320  1  0.37950000  0.27860000  0.94920000  1
  C  C321  1  0.39210000  0.31770000  0.95440000  1
  C  C322  1  0.37040000  0.33670000  0.98700000  1
  C  C323  1  0.33180000  0.31610000  0.01810000  1
  C  C324  1  0.31360000  0.27610000  0.01430000  1
  C  C325  1  0.38900000  0.37800000  0.99020000  1
  C  C326  1  0.29400000  0.25440000  0.04890000  1
  C  C327  1  0.14400000  0.23450000  0.94600000  1
  C  C328  1  0.21610000  0.40220000  0.53160000  1
  C  C329  1  0.25630000  0.36120000  0.53000000  1
  C  C330  1  0.35200000  0.35120000  0.51150000  1
  C  C331  1  0.38570000  0.31300000  0.50800000  1
  C  C332  1  0.31870000  0.28500000  0.52370000  1
  C  C333  1  0.22230000  0.29560000  0.54230000  1
  C  C334  1  0.19180000  0.33350000  0.54480000  1
  C  C335  1  0.34050000  0.24330000  0.52020000  1
  C  C336  1  0.37950000  0.22140000  0.55080000  1
  C  C337  1  0.39210000  0.18230000  0.54560000  1
  C  C338  1  0.37040000  0.16330000  0.51300000  1
  C  C339  1  0.33180000  0.18390000  0.48190000  1
  C  C340  1  0.31360000  0.22390000  0.48570000  1
  C  C341  1  0.38900000  0.12200000  0.50980000  1
  C  C342  1  0.29400000  0.24560000  0.45110000  1
  C  C343  1  0.14400000  0.26550000  0.55400000  1
  C  C344  1  0.71610000  0.96840000  0.40220000  1
  C  C345  1  0.75630000  0.97000000  0.36120000  1
  C  C346  1  0.85200000  0.98850000  0.35120000  1
  C  C347  1  0.88570000  0.99200000  0.31300000  1
  C  C348  1  0.81870000  0.97630000  0.28500000  1
  C  C349  1  0.72230000  0.95770000  0.29560000  1
  C  C350  1  0.69180000  0.95520000  0.33350000  1
  C  C351  1  0.84050000  0.97980000  0.24330000  1
  C  C352  1  0.87950000  0.94920000  0.22140000  1
  C  C353  1  0.89210000  0.95440000  0.18230000  1
  C  C354  1  0.87040000  0.98700000  0.16330000  1
  C  C355  1  0.83180000  0.01810000  0.18390000  1
  C  C356  1  0.81360000  0.01430000  0.22390000  1
  C  C357  1  0.88900000  0.99020000  0.12200000  1
  C  C358  1  0.79400000  0.04890000  0.24560000  1
  C  C359  1  0.64400000  0.94600000  0.26550000  1
  C  C360  1  0.71610000  0.53160000  0.09780000  1
  C  C361  1  0.75630000  0.53000000  0.13880000  1
  C  C362  1  0.85200000  0.51150000  0.14880000  1
  C  C363  1  0.88570000  0.50800000  0.18700000  1
  C  C364  1  0.81870000  0.52370000  0.21500000  1
  C  C365  1  0.72230000  0.54230000  0.20440000  1
  C  C366  1  0.69180000  0.54480000  0.16650000  1
  C  C367  1  0.84050000  0.52020000  0.25670000  1
  C  C368  1  0.87950000  0.55080000  0.27860000  1
  C  C369  1  0.89210000  0.54560000  0.31770000  1
  C  C370  1  0.87040000  0.51300000  0.33670000  1
  C  C371  1  0.83180000  0.48190000  0.31610000  1
  C  C372  1  0.81360000  0.48570000  0.27610000  1
  C  C373  1  0.88900000  0.50980000  0.37800000  1
  C  C374  1  0.79400000  0.45110000  0.25440000  1
  C  C375  1  0.64400000  0.55400000  0.23450000  1
  O  O376  1  0.63870000  0.09056000  0.55377000  1
  O  O377  1  0.76050000  0.07422000  0.50720000  1
  O  O378  1  0.92760000  0.39438000  0.53976000  1
  O  O379  1  0.86960000  0.39471000  0.47850000  1
  O  O380  1  0.45620000  0.98953000  0.55850000  1
  O  O381  1  0.35900000  0.03463000  0.51349000  1
  O  O382  1  0.63870000  0.40944000  0.94623000  1
  O  O383  1  0.76050000  0.42578000  0.99280000  1
  O  O384  1  0.92760000  0.10562000  0.96024000  1
  O  O385  1  0.86960000  0.10529000  0.02150000  1
  O  O386  1  0.45620000  0.51047000  0.94150000  1
  O  O387  1  0.35900000  0.46537000  0.98651000  1
  O  O388  1  0.13870000  0.94623000  0.09056000  1
  O  O389  1  0.26050000  0.99280000  0.07422000  1
  O  O390  1  0.42760000  0.96024000  0.39438000  1
  O  O391  1  0.36960000  0.02150000  0.39471000  1
  O  O392  1  0.95620000  0.94150000  0.98953000  1
  O  O393  1  0.85900000  0.98651000  0.03463000  1
  O  O394  1  0.13870000  0.55377000  0.40944000  1
  O  O395  1  0.26050000  0.50720000  0.42578000  1
  O  O396  1  0.42760000  0.53976000  0.10562000  1
  O  O397  1  0.36960000  0.47850000  0.10529000  1
  O  O398  1  0.95620000  0.55850000  0.51047000  1
  O  O399  1  0.85900000  0.51349000  0.46537000  1
  O  O400  1  0.86130000  0.90944000  0.05377000  1
  O  O401  1  0.73950000  0.92578000  0.00720000  1
  O  O402  1  0.57240000  0.60562000  0.03976000  1
  O  O403  1  0.63040000  0.60529000  0.97850000  1
  O  O404  1  0.04380000  0.01047000  0.05850000  1
  O  O405  1  0.14100000  0.96537000  0.01349000  1
  O  O406  1  0.86130000  0.59056000  0.44623000  1
  O  O407  1  0.73950000  0.57422000  0.49280000  1
  O  O408  1  0.57240000  0.89438000  0.46024000  1
  O  O409  1  0.63040000  0.89471000  0.52150000  1
  O  O410  1  0.04380000  0.48953000  0.44150000  1
  O  O411  1  0.14100000  0.53463000  0.48651000  1
  O  O412  1  0.36130000  0.05377000  0.59056000  1
  O  O413  1  0.23950000  0.00720000  0.57422000  1
  O  O414  1  0.07240000  0.03976000  0.89438000  1
  O  O415  1  0.13040000  0.97850000  0.89471000  1
  O  O416  1  0.54380000  0.05850000  0.48953000  1
  O  O417  1  0.64100000  0.01349000  0.53463000  1
  O  O418  1  0.36130000  0.44623000  0.90944000  1
  O  O419  1  0.23950000  0.49280000  0.92578000  1
  O  O420  1  0.07240000  0.46024000  0.60562000  1
  O  O421  1  0.13040000  0.52150000  0.60529000  1
  O  O422  1  0.54380000  0.44150000  0.01047000  1
  O  O423  1  0.64100000  0.48651000  0.96537000  1
  O  O424  1  0.36130000  0.90944000  0.44623000  1
  O  O425  1  0.23950000  0.92578000  0.49280000  1
  O  O426  1  0.07240000  0.60562000  0.46024000  1
  O  O427  1  0.13040000  0.60529000  0.52150000  1
  O  O428  1  0.54380000  0.01047000  0.44150000  1
  O  O429  1  0.64100000  0.96537000  0.48651000  1
  O  O430  1  0.36130000  0.59056000  0.05377000  1
  O  O431  1  0.23950000  0.57422000  0.00720000  1
  O  O432  1  0.07240000  0.89438000  0.03976000  1
  O  O433  1  0.13040000  0.89471000  0.97850000  1
  O  O434  1  0.54380000  0.48953000  0.05850000  1
  O  O435  1  0.64100000  0.53463000  0.01349000  1
  O  O436  1  0.86130000  0.05377000  0.90944000  1
  O  O437  1  0.73950000  0.00720000  0.92578000  1
  O  O438  1  0.57240000  0.03976000  0.60562000  1
  O  O439  1  0.63040000  0.97850000  0.60529000  1
  O  O440  1  0.04380000  0.05850000  0.01047000  1
  O  O441  1  0.14100000  0.01349000  0.96537000  1
  O  O442  1  0.86130000  0.44623000  0.59056000  1
  O  O443  1  0.73950000  0.49280000  0.57422000  1
  O  O444  1  0.57240000  0.46024000  0.89438000  1
  O  O445  1  0.63040000  0.52150000  0.89471000  1
  O  O446  1  0.04380000  0.44150000  0.48953000  1
  O  O447  1  0.14100000  0.48651000  0.53463000  1
  O  O448  1  0.13870000  0.09056000  0.94623000  1
  O  O449  1  0.26050000  0.07422000  0.99280000  1
  O  O450  1  0.42760000  0.39438000  0.96024000  1
  O  O451  1  0.36960000  0.39471000  0.02150000  1
  O  O452  1  0.95620000  0.98953000  0.94150000  1
  O  O453  1  0.85900000  0.03463000  0.98651000  1
  O  O454  1  0.13870000  0.40944000  0.55377000  1
  O  O455  1  0.26050000  0.42578000  0.50720000  1
  O  O456  1  0.42760000  0.10562000  0.53976000  1
  O  O457  1  0.36960000  0.10529000  0.47850000  1
  O  O458  1  0.95620000  0.51047000  0.55850000  1
  O  O459  1  0.85900000  0.46537000  0.51349000  1
  O  O460  1  0.63870000  0.94623000  0.40944000  1
  O  O461  1  0.76050000  0.99280000  0.42578000  1
  O  O462  1  0.92760000  0.96024000  0.10562000  1
  O  O463  1  0.86960000  0.02150000  0.10529000  1
  O  O464  1  0.45620000  0.94150000  0.51047000  1
  O  O465  1  0.35900000  0.98651000  0.46537000  1
  O  O466  1  0.63870000  0.55377000  0.09056000  1
  O  O467  1  0.76050000  0.50720000  0.07422000  1
  O  O468  1  0.92760000  0.53976000  0.39438000  1
  O  O469  1  0.86960000  0.47850000  0.39471000  1
  O  O470  1  0.45620000  0.55850000  0.98953000  1
  O  O471  1  0.35900000  0.51349000  0.03463000  1
  F  F472  1  0.87400000  0.22890000  0.44080000  1
  F  F473  1  0.78300000  0.27550000  0.41840000  1
  F  F474  1  0.70100000  0.23260000  0.44990000  1
  F  F475  1  0.64300000  0.26400000  0.53000000  1
  F  F476  1  0.66500000  0.24900000  0.58800000  1
  F  F477  1  0.53900000  0.22300000  0.55500000  1
  F  F478  1  0.87400000  0.27110000  0.05920000  1
  F  F479  1  0.78300000  0.22450000  0.08160000  1
  F  F480  1  0.70100000  0.26740000  0.05010000  1
  F  F481  1  0.64300000  0.23600000  0.97000000  1
  F  F482  1  0.66500000  0.25100000  0.91200000  1
  F  F483  1  0.53900000  0.27700000  0.94500000  1
  F  F484  1  0.37400000  0.05920000  0.22890000  1
  F  F485  1  0.28300000  0.08160000  0.27550000  1
  F  F486  1  0.20100000  0.05010000  0.23260000  1
  F  F487  1  0.14300000  0.97000000  0.26400000  1
  F  F488  1  0.16500000  0.91200000  0.24900000  1
  F  F489  1  0.03900000  0.94500000  0.22300000  1
  F  F490  1  0.37400000  0.44080000  0.27110000  1
  F  F491  1  0.28300000  0.41840000  0.22450000  1
  F  F492  1  0.20100000  0.44990000  0.26740000  1
  F  F493  1  0.14300000  0.53000000  0.23600000  1
  F  F494  1  0.16500000  0.58800000  0.25100000  1
  F  F495  1  0.03900000  0.55500000  0.27700000  1
  F  F496  1  0.62600000  0.77110000  0.94080000  1
  F  F497  1  0.71700000  0.72450000  0.91840000  1
  F  F498  1  0.79900000  0.76740000  0.94990000  1
  F  F499  1  0.85700000  0.73600000  0.03000000  1
  F  F500  1  0.83500000  0.75100000  0.08800000  1
  F  F501  1  0.96100000  0.77700000  0.05500000  1
  F  F502  1  0.62600000  0.72890000  0.55920000  1
  F  F503  1  0.71700000  0.77550000  0.58160000  1
  F  F504  1  0.79900000  0.73260000  0.55010000  1
  F  F505  1  0.85700000  0.76400000  0.47000000  1
  F  F506  1  0.83500000  0.74900000  0.41200000  1
  F  F507  1  0.96100000  0.72300000  0.44500000  1
  F  F508  1  0.12600000  0.94080000  0.72890000  1
  F  F509  1  0.21700000  0.91840000  0.77550000  1
  F  F510  1  0.29900000  0.94990000  0.73260000  1
  F  F511  1  0.35700000  0.03000000  0.76400000  1
  F  F512  1  0.33500000  0.08800000  0.74900000  1
  F  F513  1  0.46100000  0.05500000  0.72300000  1
  F  F514  1  0.12600000  0.55920000  0.77110000  1
  F  F515  1  0.21700000  0.58160000  0.72450000  1
  F  F516  1  0.29900000  0.55010000  0.76740000  1
  F  F517  1  0.35700000  0.47000000  0.73600000  1
  F  F518  1  0.33500000  0.41200000  0.75100000  1
  F  F519  1  0.46100000  0.44500000  0.77700000  1
  F  F520  1  0.12600000  0.77110000  0.55920000  1
  F  F521  1  0.21700000  0.72450000  0.58160000  1
  F  F522  1  0.29900000  0.76740000  0.55010000  1
  F  F523  1  0.35700000  0.73600000  0.47000000  1
  F  F524  1  0.33500000  0.75100000  0.41200000  1
  F  F525  1  0.46100000  0.77700000  0.44500000  1
  F  F526  1  0.12600000  0.72890000  0.94080000  1
  F  F527  1  0.21700000  0.77550000  0.91840000  1
  F  F528  1  0.29900000  0.73260000  0.94990000  1
  F  F529  1  0.35700000  0.76400000  0.03000000  1
  F  F530  1  0.33500000  0.74900000  0.08800000  1
  F  F531  1  0.46100000  0.72300000  0.05500000  1
  F  F532  1  0.62600000  0.94080000  0.77110000  1
  F  F533  1  0.71700000  0.91840000  0.72450000  1
  F  F534  1  0.79900000  0.94990000  0.76740000  1
  F  F535  1  0.85700000  0.03000000  0.73600000  1
  F  F536  1  0.83500000  0.08800000  0.75100000  1
  F  F537  1  0.96100000  0.05500000  0.77700000  1
  F  F538  1  0.62600000  0.55920000  0.72890000  1
  F  F539  1  0.71700000  0.58160000  0.77550000  1
  F  F540  1  0.79900000  0.55010000  0.73260000  1
  F  F541  1  0.85700000  0.47000000  0.76400000  1
  F  F542  1  0.83500000  0.41200000  0.74900000  1
  F  F543  1  0.96100000  0.44500000  0.72300000  1
  F  F544  1  0.37400000  0.22890000  0.05920000  1
  F  F545  1  0.28300000  0.27550000  0.08160000  1
  F  F546  1  0.20100000  0.23260000  0.05010000  1
  F  F547  1  0.14300000  0.26400000  0.97000000  1
  F  F548  1  0.16500000  0.24900000  0.91200000  1
  F  F549  1  0.03900000  0.22300000  0.94500000  1
  F  F550  1  0.37400000  0.27110000  0.44080000  1
  F  F551  1  0.28300000  0.22450000  0.41840000  1
  F  F552  1  0.20100000  0.26740000  0.44990000  1
  F  F553  1  0.14300000  0.23600000  0.53000000  1
  F  F554  1  0.16500000  0.25100000  0.58800000  1
  F  F555  1  0.03900000  0.27700000  0.55500000  1
  F  F556  1  0.87400000  0.05920000  0.27110000  1
  F  F557  1  0.78300000  0.08160000  0.22450000  1
  F  F558  1  0.70100000  0.05010000  0.26740000  1
  F  F559  1  0.64300000  0.97000000  0.23600000  1
  F  F560  1  0.66500000  0.91200000  0.25100000  1
  F  F561  1  0.53900000  0.94500000  0.27700000  1
  F  F562  1  0.87400000  0.44080000  0.22890000  1
  F  F563  1  0.78300000  0.41840000  0.27550000  1
  F  F564  1  0.70100000  0.44990000  0.23260000  1
  F  F565  1  0.64300000  0.53000000  0.26400000  1
  F  F566  1  0.66500000  0.58800000  0.24900000  1
  F  F567  1  0.53900000  0.55500000  0.22300000  1
