# generated using pymatgen
data_Zr3H12C32(OF)12
_symmetry_space_group_name_H-M   'P 1'
_cell_length_a   15.05740000
_cell_length_b   24.29500000
_cell_length_c   24.29500000
_cell_angle_alpha   90.00000000
_cell_angle_beta   90.00000000
_cell_angle_gamma   90.00000000
_symmetry_Int_Tables_number   1
_chemical_formula_structural   Zr3H12C32(OF)12
_chemical_formula_sum   'Zr12 H48 C128 O48 F48'
_cell_volume   8887.58555424
_cell_formula_units_Z   4
loop_
 _symmetry_equiv_pos_site_id
 _symmetry_equiv_pos_as_xyz
  1  'x, y, z'
loop_
 _atom_site_type_symbol
 _atom_site_label
 _atom_site_symmetry_multiplicity
 _atom_site_fract_x
 _atom_site_fract_y
 _atom_site_fract_z
 _atom_site_occupancy
  Zr  Zr0  1  0.00000000  0.10068000  0.50000000  1
  Zr  Zr1  1  1.00000000  0.89932000  0.50000000  1
  Zr  Zr2  1  0.50000000  0.50000000  0.10068000  1
  Zr  Zr3  1  0.50000000  0.50000000  0.89932000  1
  Zr  Zr4  1  0.11738000  0.00000000  0.42736000  1
  Zr  Zr5  1  0.11738000  0.00000000  0.57264000  1
  Zr  Zr6  1  0.61738000  0.57264000  0.00000000  1
  Zr  Zr7  1  0.61738000  0.42736000  0.00000000  1
  Zr  Zr8  1  0.88262000  0.00000000  0.42736000  1
  Zr  Zr9  1  0.88262000  0.00000000  0.57264000  1
  Zr  Zr10  1  0.38262000  0.42736000  0.00000000  1
  Zr  Zr11  1  0.38262000  0.57264000  0.00000000  1
  H  H12  1  0.09450000  0.23660000  0.39750000  1
  H  H13  1  0.26780000  0.12720000  0.33570000  1
  H  H14  1  0.32567000  0.19086000  0.26583000  1
  H  H15  1  0.09450000  0.76340000  0.60250000  1
  H  H16  1  0.26780000  0.87280000  0.66430000  1
  H  H17  1  0.32567000  0.80914000  0.73417000  1
  H  H18  1  0.59450000  0.60250000  0.23660000  1
  H  H19  1  0.76780000  0.66430000  0.12720000  1
  H  H20  1  0.82567000  0.73417000  0.19086000  1
  H  H21  1  0.59450000  0.39750000  0.76340000  1
  H  H22  1  0.76780000  0.33570000  0.87280000  1
  H  H23  1  0.82567000  0.26583000  0.80914000  1
  H  H24  1  0.90550000  0.76340000  0.39750000  1
  H  H25  1  0.73220000  0.87280000  0.33570000  1
  H  H26  1  0.67433000  0.80914000  0.26583000  1
  H  H27  1  0.90550000  0.23660000  0.60250000  1
  H  H28  1  0.73220000  0.12720000  0.66430000  1
  H  H29  1  0.67433000  0.19086000  0.73417000  1
  H  H30  1  0.40550000  0.39750000  0.23660000  1
  H  H31  1  0.23220000  0.33570000  0.12720000  1
  H  H32  1  0.17433000  0.26583000  0.19086000  1
  H  H33  1  0.40550000  0.60250000  0.76340000  1
  H  H34  1  0.23220000  0.66430000  0.87280000  1
  H  H35  1  0.17433000  0.73417000  0.80914000  1
  H  H36  1  0.90550000  0.76340000  0.60250000  1
  H  H37  1  0.73220000  0.87280000  0.66430000  1
  H  H38  1  0.67433000  0.80914000  0.73417000  1
  H  H39  1  0.90550000  0.23660000  0.39750000  1
  H  H40  1  0.73220000  0.12720000  0.33570000  1
  H  H41  1  0.67433000  0.19086000  0.26583000  1
  H  H42  1  0.40550000  0.39750000  0.76340000  1
  H  H43  1  0.23220000  0.33570000  0.87280000  1
  H  H44  1  0.17433000  0.26583000  0.80914000  1
  H  H45  1  0.40550000  0.60250000  0.23660000  1
  H  H46  1  0.23220000  0.66430000  0.12720000  1
  H  H47  1  0.17433000  0.73417000  0.19086000  1
  H  H48  1  0.09450000  0.23660000  0.60250000  1
  H  H49  1  0.26780000  0.12720000  0.66430000  1
  H  H50  1  0.32567000  0.19086000  0.73417000  1
  H  H51  1  0.09450000  0.76340000  0.39750000  1
  H  H52  1  0.26780000  0.87280000  0.33570000  1
  H  H53  1  0.32567000  0.80914000  0.26583000  1
  H  H54  1  0.59450000  0.60250000  0.76340000  1
  H  H55  1  0.76780000  0.66430000  0.87280000  1
  H  H56  1  0.82567000  0.73417000  0.80914000  1
  H  H57  1  0.59450000  0.39750000  0.23660000  1
  H  H58  1  0.76780000  0.33570000  0.12720000  1
  H  H59  1  0.82567000  0.26583000  0.19086000  1
  C  C60  1  0.23290000  0.25420000  0.29630000  1
  C  C61  1  0.16910000  0.26690000  0.33420000  1
  C  C62  1  0.13900000  0.22760000  0.37140000  1
  C  C63  1  0.17410000  0.17580000  0.36980000  1
  C  C64  1  0.24130000  0.16270000  0.33440000  1
  C  C65  1  0.27100000  0.20150000  0.29650000  1
  C  C66  1  0.13880000  0.13260000  0.40740000  1
  C  C67  1  0.12440000  0.32250000  0.34160000  1
  C  C68  1  0.23290000  0.74580000  0.70370000  1
  C  C69  1  0.16910000  0.73310000  0.66580000  1
  C  C70  1  0.13900000  0.77240000  0.62860000  1
  C  C71  1  0.17410000  0.82420000  0.63020000  1
  C  C72  1  0.24130000  0.83730000  0.66560000  1
  C  C73  1  0.27100000  0.79850000  0.70350000  1
  C  C74  1  0.13880000  0.86740000  0.59260000  1
  C  C75  1  0.12440000  0.67750000  0.65840000  1
  C  C76  1  0.73290000  0.70370000  0.25420000  1
  C  C77  1  0.66910000  0.66580000  0.26690000  1
  C  C78  1  0.63900000  0.62860000  0.22760000  1
  C  C79  1  0.67410000  0.63020000  0.17580000  1
  C  C80  1  0.74130000  0.66560000  0.16270000  1
  C  C81  1  0.77100000  0.70350000  0.20150000  1
  C  C82  1  0.63880000  0.59260000  0.13260000  1
  C  C83  1  0.62440000  0.65840000  0.32250000  1
  C  C84  1  0.73290000  0.29630000  0.74580000  1
  C  C85  1  0.66910000  0.33420000  0.73310000  1
  C  C86  1  0.63900000  0.37140000  0.77240000  1
  C  C87  1  0.67410000  0.36980000  0.82420000  1
  C  C88  1  0.74130000  0.33440000  0.83730000  1
  C  C89  1  0.77100000  0.29650000  0.79850000  1
  C  C90  1  0.63880000  0.40740000  0.86740000  1
  C  C91  1  0.62440000  0.34160000  0.67750000  1
  C  C92  1  0.76710000  0.74580000  0.29630000  1
  C  C93  1  0.83090000  0.73310000  0.33420000  1
  C  C94  1  0.86100000  0.77240000  0.37140000  1
  C  C95  1  0.82590000  0.82420000  0.36980000  1
  C  C96  1  0.75870000  0.83730000  0.33440000  1
  C  C97  1  0.72900000  0.79850000  0.29650000  1
  C  C98  1  0.86120000  0.86740000  0.40740000  1
  C  C99  1  0.87560000  0.67750000  0.34160000  1
  C  C100  1  0.76710000  0.25420000  0.70370000  1
  C  C101  1  0.83090000  0.26690000  0.66580000  1
  C  C102  1  0.86100000  0.22760000  0.62860000  1
  C  C103  1  0.82590000  0.17580000  0.63020000  1
  C  C104  1  0.75870000  0.16270000  0.66560000  1
  C  C105  1  0.72900000  0.20150000  0.70350000  1
  C  C106  1  0.86120000  0.13260000  0.59260000  1
  C  C107  1  0.87560000  0.32250000  0.65840000  1
  C  C108  1  0.26710000  0.29630000  0.25420000  1
  C  C109  1  0.33090000  0.33420000  0.26690000  1
  C  C110  1  0.36100000  0.37140000  0.22760000  1
  C  C111  1  0.32590000  0.36980000  0.17580000  1
  C  C112  1  0.25870000  0.33440000  0.16270000  1
  C  C113  1  0.22900000  0.29650000  0.20150000  1
  C  C114  1  0.36120000  0.40740000  0.13260000  1
  C  C115  1  0.37560000  0.34160000  0.32250000  1
  C  C116  1  0.26710000  0.70370000  0.74580000  1
  C  C117  1  0.33090000  0.66580000  0.73310000  1
  C  C118  1  0.36100000  0.62860000  0.77240000  1
  C  C119  1  0.32590000  0.63020000  0.82420000  1
  C  C120  1  0.25870000  0.66560000  0.83730000  1
  C  C121  1  0.22900000  0.70350000  0.79850000  1
  C  C122  1  0.36120000  0.59260000  0.86740000  1
  C  C123  1  0.37560000  0.65840000  0.67750000  1
  C  C124  1  0.76710000  0.74580000  0.70370000  1
  C  C125  1  0.83090000  0.73310000  0.66580000  1
  C  C126  1  0.86100000  0.77240000  0.62860000  1
  C  C127  1  0.82590000  0.82420000  0.63020000  1
  C  C128  1  0.75870000  0.83730000  0.66560000  1
  C  C129  1  0.72900000  0.79850000  0.70350000  1
  C  C130  1  0.86120000  0.86740000  0.59260000  1
  C  C131  1  0.87560000  0.67750000  0.65840000  1
  C  C132  1  0.76710000  0.25420000  0.29630000  1
  C  C133  1  0.83090000  0.26690000  0.33420000  1
  C  C134  1  0.86100000  0.22760000  0.37140000  1
  C  C135  1  0.82590000  0.17580000  0.36980000  1
  C  C136  1  0.75870000  0.16270000  0.33440000  1
  C  C137  1  0.72900000  0.20150000  0.29650000  1
  C  C138  1  0.86120000  0.13260000  0.40740000  1
  C  C139  1  0.87560000  0.32250000  0.34160000  1
  C  C140  1  0.26710000  0.29630000  0.74580000  1
  C  C141  1  0.33090000  0.33420000  0.73310000  1
  C  C142  1  0.36100000  0.37140000  0.77240000  1
  C  C143  1  0.32590000  0.36980000  0.82420000  1
  C  C144  1  0.25870000  0.33440000  0.83730000  1
  C  C145  1  0.22900000  0.29650000  0.79850000  1
  C  C146  1  0.36120000  0.40740000  0.86740000  1
  C  C147  1  0.37560000  0.34160000  0.67750000  1
  C  C148  1  0.26710000  0.70370000  0.25420000  1
  C  C149  1  0.33090000  0.66580000  0.26690000  1
  C  C150  1  0.36100000  0.62860000  0.22760000  1
  C  C151  1  0.32590000  0.63020000  0.17580000  1
  C  C152  1  0.25870000  0.66560000  0.16270000  1
  C  C153  1  0.22900000  0.70350000  0.20150000  1
  C  C154  1  0.36120000  0.59260000  0.13260000  1
  C  C155  1  0.37560000  0.65840000  0.32250000  1
  C  C156  1  0.23290000  0.25420000  0.70370000  1
  C  C157  1  0.16910000  0.26690000  0.66580000  1
  C  C158  1  0.13900000  0.22760000  0.62860000  1
  C  C159  1  0.17410000  0.17580000  0.63020000  1
  C  C160  1  0.24130000  0.16270000  0.66560000  1
  C  C161  1  0.27100000  0.20150000  0.70350000  1
  C  C162  1  0.13880000  0.13260000  0.59260000  1
  C  C163  1  0.12440000  0.32250000  0.65840000  1
  C  C164  1  0.23290000  0.74580000  0.29630000  1
  C  C165  1  0.16910000  0.73310000  0.33420000  1
  C  C166  1  0.13900000  0.77240000  0.37140000  1
  C  C167  1  0.17410000  0.82420000  0.36980000  1
  C  C168  1  0.24130000  0.83730000  0.33440000  1
  C  C169  1  0.27100000  0.79850000  0.29650000  1
  C  C170  1  0.13880000  0.86740000  0.40740000  1
  C  C171  1  0.12440000  0.67750000  0.34160000  1
  C  C172  1  0.73290000  0.70370000  0.74580000  1
  C  C173  1  0.66910000  0.66580000  0.73310000  1
  C  C174  1  0.63900000  0.62860000  0.77240000  1
  C  C175  1  0.67410000  0.63020000  0.82420000  1
  C  C176  1  0.74130000  0.66560000  0.83730000  1
  C  C177  1  0.77100000  0.70350000  0.79850000  1
  C  C178  1  0.63880000  0.59260000  0.86740000  1
  C  C179  1  0.62440000  0.65840000  0.67750000  1
  C  C180  1  0.73290000  0.29630000  0.25420000  1
  C  C181  1  0.66910000  0.33420000  0.26690000  1
  C  C182  1  0.63900000  0.37140000  0.22760000  1
  C  C183  1  0.67410000  0.36980000  0.17580000  1
  C  C184  1  0.74130000  0.33440000  0.16270000  1
  C  C185  1  0.77100000  0.29650000  0.20150000  1
  C  C186  1  0.63880000  0.40740000  0.13260000  1
  C  C187  1  0.62440000  0.34160000  0.32250000  1
  O  O188  1  0.08780000  0.14785000  0.44465000  1
  O  O189  1  0.16460000  0.08362000  0.39754000  1
  O  O190  1  0.08780000  0.85215000  0.55535000  1
  O  O191  1  0.16460000  0.91638000  0.60246000  1
  O  O192  1  0.58780000  0.55535000  0.14785000  1
  O  O193  1  0.66460000  0.60246000  0.08362000  1
  O  O194  1  0.58780000  0.44465000  0.85215000  1
  O  O195  1  0.66460000  0.39754000  0.91638000  1
  O  O196  1  0.91220000  0.85215000  0.44465000  1
  O  O197  1  0.83540000  0.91638000  0.39754000  1
  O  O198  1  0.91220000  0.14785000  0.55535000  1
  O  O199  1  0.83540000  0.08362000  0.60246000  1
  O  O200  1  0.41220000  0.44465000  0.14785000  1
  O  O201  1  0.33540000  0.39754000  0.08362000  1
  O  O202  1  0.41220000  0.55535000  0.85215000  1
  O  O203  1  0.33540000  0.60246000  0.91638000  1
  O  O204  1  0.91220000  0.85215000  0.55535000  1
  O  O205  1  0.83540000  0.91638000  0.60246000  1
  O  O206  1  0.91220000  0.14785000  0.44465000  1
  O  O207  1  0.83540000  0.08362000  0.39754000  1
  O  O208  1  0.41220000  0.44465000  0.85215000  1
  O  O209  1  0.33540000  0.39754000  0.91638000  1
  O  O210  1  0.41220000  0.55535000  0.14785000  1
  O  O211  1  0.33540000  0.60246000  0.08362000  1
  O  O212  1  0.08780000  0.14785000  0.55535000  1
  O  O213  1  0.16460000  0.08362000  0.60246000  1
  O  O214  1  0.08780000  0.85215000  0.44465000  1
  O  O215  1  0.16460000  0.91638000  0.39754000  1
  O  O216  1  0.58780000  0.55535000  0.85215000  1
  O  O217  1  0.66460000  0.60246000  0.91638000  1
  O  O218  1  0.58780000  0.44465000  0.14785000  1
  O  O219  1  0.66460000  0.39754000  0.08362000  1
  O  O220  1  0.11850000  0.04950000  0.50000000  1
  O  O221  1  0.11850000  0.95050000  0.50000000  1
  O  O222  1  0.61850000  0.50000000  0.04950000  1
  O  O223  1  0.61850000  0.50000000  0.95050000  1
  O  O224  1  0.88150000  0.95050000  0.50000000  1
  O  O225  1  0.88150000  0.04950000  0.50000000  1
  O  O226  1  0.38150000  0.50000000  0.04950000  1
  O  O227  1  0.38150000  0.50000000  0.95050000  1
  O  O228  1  0.00000000  0.04970000  0.42660000  1
  O  O229  1  0.00000000  0.95030000  0.57340000  1
  O  O230  1  0.50000000  0.57340000  0.04970000  1
  O  O231  1  0.50000000  0.42660000  0.95030000  1
  O  O232  1  0.00000000  0.95030000  0.42660000  1
  O  O233  1  0.00000000  0.04970000  0.57340000  1
  O  O234  1  0.50000000  0.42660000  0.04970000  1
  O  O235  1  0.50000000  0.57340000  0.95030000  1
  F  F236  1  0.08030000  0.34440000  0.29400000  1
  F  F237  1  0.05760000  0.32980000  0.38100000  1
  F  F238  1  0.18480000  0.36700000  0.35130000  1
  F  F239  1  0.08030000  0.65560000  0.70600000  1
  F  F240  1  0.05760000  0.67020000  0.61900000  1
  F  F241  1  0.18480000  0.63300000  0.64870000  1
  F  F242  1  0.58030000  0.70600000  0.34440000  1
  F  F243  1  0.55760000  0.61900000  0.32980000  1
  F  F244  1  0.68480000  0.64870000  0.36700000  1
  F  F245  1  0.58030000  0.29400000  0.65560000  1
  F  F246  1  0.55760000  0.38100000  0.67020000  1
  F  F247  1  0.68480000  0.35130000  0.63300000  1
  F  F248  1  0.91970000  0.65560000  0.29400000  1
  F  F249  1  0.94240000  0.67020000  0.38100000  1
  F  F250  1  0.81520000  0.63300000  0.35130000  1
  F  F251  1  0.91970000  0.34440000  0.70600000  1
  F  F252  1  0.94240000  0.32980000  0.61900000  1
  F  F253  1  0.81520000  0.36700000  0.64870000  1
  F  F254  1  0.41970000  0.29400000  0.34440000  1
  F  F255  1  0.44240000  0.38100000  0.32980000  1
  F  F256  1  0.31520000  0.35130000  0.36700000  1
  F  F257  1  0.41970000  0.70600000  0.65560000  1
  F  F258  1  0.44240000  0.61900000  0.67020000  1
  F  F259  1  0.31520000  0.64870000  0.63300000  1
  F  F260  1  0.91970000  0.65560000  0.70600000  1
  F  F261  1  0.94240000  0.67020000  0.61900000  1
  F  F262  1  0.81520000  0.63300000  0.64870000  1
  F  F263  1  0.91970000  0.34440000  0.29400000  1
  F  F264  1  0.94240000  0.32980000  0.38100000  1
  F  F265  1  0.81520000  0.36700000  0.35130000  1
  F  F266  1  0.41970000  0.29400000  0.65560000  1
  F  F267  1  0.44240000  0.38100000  0.67020000  1
  F  F268  1  0.31520000  0.35130000  0.63300000  1
  F  F269  1  0.41970000  0.70600000  0.34440000  1
  F  F270  1  0.44240000  0.61900000  0.32980000  1
  F  F271  1  0.31520000  0.64870000  0.36700000  1
  F  F272  1  0.08030000  0.34440000  0.70600000  1
  F  F273  1  0.05760000  0.32980000  0.61900000  1
  F  F274  1  0.18480000  0.36700000  0.64870000  1
  F  F275  1  0.08030000  0.65560000  0.29400000  1
  F  F276  1  0.05760000  0.67020000  0.38100000  1
  F  F277  1  0.18480000  0.63300000  0.35130000  1
  F  F278  1  0.58030000  0.70600000  0.65560000  1
  F  F279  1  0.55760000  0.61900000  0.67020000  1
  F  F280  1  0.68480000  0.64870000  0.63300000  1
  F  F281  1  0.58030000  0.29400000  0.34440000  1
  F  F282  1  0.55760000  0.38100000  0.32980000  1
  F  F283  1  0.68480000  0.35130000  0.36700000  1
