# generated using pymatgen
data_Zr3H12C32(OF)12
_symmetry_space_group_name_H-M   'P 1'
_cell_length_a   14.64990000
_cell_length_b   24.41180000
_cell_length_c   24.41180000
_cell_angle_alpha   90.00000000
_cell_angle_beta   90.00000000
_cell_angle_gamma   90.00000000
_symmetry_Int_Tables_number   1
_chemical_formula_structural   Zr3H12C32(OF)12
_chemical_formula_sum   'Zr12 H48 C128 O48 F48'
_cell_volume   8730.40250227
_cell_formula_units_Z   4
loop_
 _symmetry_equiv_pos_site_id
 _symmetry_equiv_pos_as_xyz
  1  'x, y, z'
loop_
 _atom_site_type_symbol
 _atom_site_label
 _atom_site_symmetry_multiplicity
 _atom_site_fract_x
 _atom_site_fract_y
 _atom_site_fract_z
 _atom_site_occupancy
  Zr  Zr0  1  0.00000000  0.00000000  0.39972000  1
  Zr  Zr1  1  0.00000000  1.00000000  0.60028000  1
  Zr  Zr2  1  0.50000000  0.60028000  0.00000000  1
  Zr  Zr3  1  0.50000000  0.39972000  0.00000000  1
  Zr  Zr4  1  0.12021000  0.07219000  0.50000000  1
  Zr  Zr5  1  0.12021000  0.92781000  0.50000000  1
  Zr  Zr6  1  0.62021000  0.50000000  0.07219000  1
  Zr  Zr7  1  0.62021000  0.50000000  0.92781000  1
  Zr  Zr8  1  0.87979000  0.92781000  0.50000000  1
  Zr  Zr9  1  0.87979000  0.07219000  0.50000000  1
  Zr  Zr10  1  0.37979000  0.50000000  0.07219000  1
  Zr  Zr11  1  0.37979000  0.50000000  0.92781000  1
  H  H12  1  0.27859000  0.16479000  0.37871000  1
  H  H13  1  0.08796000  0.09705000  0.26202000  1
  H  H14  1  0.27859000  0.83521000  0.62129000  1
  H  H15  1  0.08796000  0.90295000  0.73798000  1
  H  H16  1  0.77859000  0.62129000  0.16479000  1
  H  H17  1  0.58796000  0.73798000  0.09705000  1
  H  H18  1  0.77859000  0.37871000  0.83521000  1
  H  H19  1  0.58796000  0.26202000  0.90295000  1
  H  H20  1  0.72141000  0.83521000  0.37871000  1
  H  H21  1  0.91204000  0.90295000  0.26202000  1
  H  H22  1  0.72141000  0.16479000  0.62129000  1
  H  H23  1  0.91204000  0.09705000  0.73798000  1
  H  H24  1  0.22141000  0.37871000  0.16479000  1
  H  H25  1  0.41204000  0.26202000  0.09705000  1
  H  H26  1  0.22141000  0.62129000  0.83521000  1
  H  H27  1  0.41204000  0.73798000  0.90295000  1
  H  H28  1  0.72141000  0.83521000  0.62129000  1
  H  H29  1  0.91204000  0.90295000  0.73798000  1
  H  H30  1  0.72141000  0.16479000  0.37871000  1
  H  H31  1  0.91204000  0.09705000  0.26202000  1
  H  H32  1  0.22141000  0.37871000  0.83521000  1
  H  H33  1  0.41204000  0.26202000  0.90295000  1
  H  H34  1  0.22141000  0.62129000  0.16479000  1
  H  H35  1  0.41204000  0.73798000  0.09705000  1
  H  H36  1  0.27859000  0.16479000  0.62129000  1
  H  H37  1  0.08796000  0.09705000  0.73798000  1
  H  H38  1  0.27859000  0.83521000  0.37871000  1
  H  H39  1  0.08796000  0.90295000  0.26202000  1
  H  H40  1  0.77859000  0.62129000  0.83521000  1
  H  H41  1  0.58796000  0.73798000  0.90295000  1
  H  H42  1  0.77859000  0.37871000  0.16479000  1
  H  H43  1  0.58796000  0.26202000  0.09705000  1
  H  H44  1  0.33102000  0.23305000  0.31009000  1
  H  H45  1  0.13535000  0.83442000  0.80661000  1
  H  H46  1  0.83102000  0.68991000  0.23305000  1
  H  H47  1  0.63535000  0.19339000  0.83442000  1
  H  H48  1  0.86465000  0.83442000  0.19339000  1
  H  H49  1  0.66898000  0.23305000  0.68991000  1
  H  H50  1  0.36465000  0.19339000  0.16558000  1
  H  H51  1  0.36465000  0.80661000  0.83442000  1
  H  H52  1  0.66898000  0.76695000  0.68991000  1
  H  H53  1  0.66898000  0.23305000  0.31009000  1
  H  H54  1  0.36465000  0.19339000  0.83442000  1
  H  H55  1  0.36465000  0.80661000  0.16558000  1
  H  H56  1  0.13535000  0.16558000  0.80661000  1
  H  H57  1  0.33102000  0.76695000  0.31009000  1
  H  H58  1  0.83102000  0.68991000  0.76695000  1
  H  H59  1  0.83102000  0.31009000  0.23305000  1
  C  C60  1  0.23470000  0.20460000  0.24710000  1
  C  C61  1  0.27420000  0.20310000  0.29910000  1
  C  C62  1  0.24540000  0.16630000  0.33650000  1
  C  C63  1  0.17700000  0.13050000  0.32510000  1
  C  C64  1  0.14100000  0.12930000  0.27330000  1
  C  C65  1  0.16860000  0.16650000  0.23560000  1
  C  C66  1  0.14220000  0.09230000  0.36800000  1
  C  C67  1  0.11120000  0.16140000  0.17660000  1
  C  C68  1  0.23470000  0.79540000  0.75290000  1
  C  C69  1  0.27420000  0.79690000  0.70090000  1
  C  C70  1  0.24540000  0.83370000  0.66350000  1
  C  C71  1  0.17700000  0.86950000  0.67490000  1
  C  C72  1  0.14100000  0.87070000  0.72670000  1
  C  C73  1  0.16860000  0.83350000  0.76440000  1
  C  C74  1  0.14220000  0.90770000  0.63200000  1
  C  C75  1  0.35450000  0.75430000  0.67730000  1
  C  C76  1  0.73470000  0.75290000  0.20460000  1
  C  C77  1  0.77420000  0.70090000  0.20310000  1
  C  C78  1  0.74540000  0.66350000  0.16630000  1
  C  C79  1  0.67700000  0.67490000  0.13050000  1
  C  C80  1  0.64100000  0.72670000  0.12930000  1
  C  C81  1  0.66860000  0.76440000  0.16650000  1
  C  C82  1  0.64220000  0.63200000  0.09230000  1
  C  C83  1  0.61120000  0.82340000  0.16140000  1
  C  C84  1  0.73470000  0.24710000  0.79540000  1
  C  C85  1  0.77420000  0.29910000  0.79690000  1
  C  C86  1  0.74540000  0.33650000  0.83370000  1
  C  C87  1  0.67700000  0.32510000  0.86950000  1
  C  C88  1  0.64100000  0.27330000  0.87070000  1
  C  C89  1  0.66860000  0.23560000  0.83350000  1
  C  C90  1  0.64220000  0.36800000  0.90770000  1
  C  C91  1  0.85450000  0.32270000  0.75430000  1
  C  C92  1  0.76530000  0.79540000  0.24710000  1
  C  C93  1  0.72580000  0.79690000  0.29910000  1
  C  C94  1  0.75460000  0.83370000  0.33650000  1
  C  C95  1  0.82300000  0.86950000  0.32510000  1
  C  C96  1  0.85900000  0.87070000  0.27330000  1
  C  C97  1  0.83140000  0.83350000  0.23560000  1
  C  C98  1  0.85780000  0.90770000  0.36800000  1
  C  C99  1  0.64550000  0.75430000  0.32270000  1
  C  C100  1  0.76530000  0.20460000  0.75290000  1
  C  C101  1  0.72580000  0.20310000  0.70090000  1
  C  C102  1  0.75460000  0.16630000  0.66350000  1
  C  C103  1  0.82300000  0.13050000  0.67490000  1
  C  C104  1  0.85900000  0.12930000  0.72670000  1
  C  C105  1  0.83140000  0.16650000  0.76440000  1
  C  C106  1  0.85780000  0.09230000  0.63200000  1
  C  C107  1  0.88880000  0.16140000  0.82340000  1
  C  C108  1  0.26530000  0.24710000  0.20460000  1
  C  C109  1  0.22580000  0.29910000  0.20310000  1
  C  C110  1  0.25460000  0.33650000  0.16630000  1
  C  C111  1  0.32300000  0.32510000  0.13050000  1
  C  C112  1  0.35900000  0.27330000  0.12930000  1
  C  C113  1  0.33140000  0.23560000  0.16650000  1
  C  C114  1  0.35780000  0.36800000  0.09230000  1
  C  C115  1  0.14550000  0.32270000  0.24570000  1
  C  C116  1  0.26530000  0.75290000  0.79540000  1
  C  C117  1  0.22580000  0.70090000  0.79690000  1
  C  C118  1  0.25460000  0.66350000  0.83370000  1
  C  C119  1  0.32300000  0.67490000  0.86950000  1
  C  C120  1  0.35900000  0.72670000  0.87070000  1
  C  C121  1  0.33140000  0.76440000  0.83350000  1
  C  C122  1  0.35780000  0.63200000  0.90770000  1
  C  C123  1  0.14550000  0.67730000  0.75430000  1
  C  C124  1  0.76530000  0.79540000  0.75290000  1
  C  C125  1  0.72580000  0.79690000  0.70090000  1
  C  C126  1  0.75460000  0.83370000  0.66350000  1
  C  C127  1  0.82300000  0.86950000  0.67490000  1
  C  C128  1  0.85900000  0.87070000  0.72670000  1
  C  C129  1  0.83140000  0.83350000  0.76440000  1
  C  C130  1  0.85780000  0.90770000  0.63200000  1
  C  C131  1  0.88880000  0.83860000  0.82340000  1
  C  C132  1  0.76530000  0.20460000  0.24710000  1
  C  C133  1  0.72580000  0.20310000  0.29910000  1
  C  C134  1  0.75460000  0.16630000  0.33650000  1
  C  C135  1  0.82300000  0.13050000  0.32510000  1
  C  C136  1  0.85900000  0.12930000  0.27330000  1
  C  C137  1  0.83140000  0.16650000  0.23560000  1
  C  C138  1  0.85780000  0.09230000  0.36800000  1
  C  C139  1  0.88880000  0.16140000  0.17660000  1
  C  C140  1  0.26530000  0.24710000  0.79540000  1
  C  C141  1  0.22580000  0.29910000  0.79690000  1
  C  C142  1  0.25460000  0.33650000  0.83370000  1
  C  C143  1  0.32300000  0.32510000  0.86950000  1
  C  C144  1  0.35900000  0.27330000  0.87070000  1
  C  C145  1  0.33140000  0.23560000  0.83350000  1
  C  C146  1  0.35780000  0.36800000  0.90770000  1
  C  C147  1  0.14550000  0.32270000  0.75430000  1
  C  C148  1  0.26530000  0.75290000  0.20460000  1
  C  C149  1  0.22580000  0.70090000  0.20310000  1
  C  C150  1  0.25460000  0.66350000  0.16630000  1
  C  C151  1  0.32300000  0.67490000  0.13050000  1
  C  C152  1  0.35900000  0.72670000  0.12930000  1
  C  C153  1  0.33140000  0.76440000  0.16650000  1
  C  C154  1  0.35780000  0.63200000  0.09230000  1
  C  C155  1  0.14550000  0.67730000  0.24570000  1
  C  C156  1  0.23470000  0.20460000  0.75290000  1
  C  C157  1  0.27420000  0.20310000  0.70090000  1
  C  C158  1  0.24540000  0.16630000  0.66350000  1
  C  C159  1  0.17700000  0.13050000  0.67490000  1
  C  C160  1  0.14100000  0.12930000  0.72670000  1
  C  C161  1  0.16860000  0.16650000  0.76440000  1
  C  C162  1  0.14220000  0.09230000  0.63200000  1
  C  C163  1  0.35450000  0.24570000  0.67730000  1
  C  C164  1  0.23470000  0.79540000  0.24710000  1
  C  C165  1  0.27420000  0.79690000  0.29910000  1
  C  C166  1  0.24540000  0.83370000  0.33650000  1
  C  C167  1  0.17700000  0.86950000  0.32510000  1
  C  C168  1  0.14100000  0.87070000  0.27330000  1
  C  C169  1  0.16860000  0.83350000  0.23560000  1
  C  C170  1  0.14220000  0.90770000  0.36800000  1
  C  C171  1  0.11120000  0.83860000  0.17660000  1
  C  C172  1  0.73470000  0.75290000  0.79540000  1
  C  C173  1  0.77420000  0.70090000  0.79690000  1
  C  C174  1  0.74540000  0.66350000  0.83370000  1
  C  C175  1  0.67700000  0.67490000  0.86950000  1
  C  C176  1  0.64100000  0.72670000  0.87070000  1
  C  C177  1  0.66860000  0.76440000  0.83350000  1
  C  C178  1  0.64220000  0.63200000  0.90770000  1
  C  C179  1  0.61120000  0.82340000  0.83860000  1
  C  C180  1  0.73470000  0.24710000  0.20460000  1
  C  C181  1  0.77420000  0.29910000  0.20310000  1
  C  C182  1  0.74540000  0.33650000  0.16630000  1
  C  C183  1  0.67700000  0.32510000  0.13050000  1
  C  C184  1  0.64100000  0.27330000  0.12930000  1
  C  C185  1  0.66860000  0.23560000  0.16650000  1
  C  C186  1  0.64220000  0.36800000  0.09230000  1
  C  C187  1  0.61120000  0.17660000  0.16140000  1
  O  O188  1  0.09020000  0.05508000  0.35270000  1
  O  O189  1  0.16770000  0.10170000  0.41649000  1
  O  O190  1  0.09020000  0.94492000  0.64730000  1
  O  O191  1  0.16770000  0.89830000  0.58351000  1
  O  O192  1  0.59020000  0.64730000  0.05508000  1
  O  O193  1  0.66770000  0.58351000  0.10170000  1
  O  O194  1  0.59020000  0.35270000  0.94492000  1
  O  O195  1  0.66770000  0.41649000  0.89830000  1
  O  O196  1  0.90980000  0.94492000  0.35270000  1
  O  O197  1  0.83230000  0.89830000  0.41649000  1
  O  O198  1  0.90980000  0.05508000  0.64730000  1
  O  O199  1  0.83230000  0.10170000  0.58351000  1
  O  O200  1  0.40980000  0.35270000  0.05508000  1
  O  O201  1  0.33230000  0.41649000  0.10170000  1
  O  O202  1  0.40980000  0.64730000  0.94492000  1
  O  O203  1  0.33230000  0.58351000  0.89830000  1
  O  O204  1  0.90980000  0.94492000  0.64730000  1
  O  O205  1  0.83230000  0.89830000  0.58351000  1
  O  O206  1  0.90980000  0.05508000  0.35270000  1
  O  O207  1  0.83230000  0.10170000  0.41649000  1
  O  O208  1  0.40980000  0.35270000  0.94492000  1
  O  O209  1  0.33230000  0.41649000  0.89830000  1
  O  O210  1  0.40980000  0.64730000  0.05508000  1
  O  O211  1  0.33230000  0.58351000  0.10170000  1
  O  O212  1  0.09020000  0.05508000  0.64730000  1
  O  O213  1  0.16770000  0.10170000  0.58351000  1
  O  O214  1  0.09020000  0.94492000  0.35270000  1
  O  O215  1  0.16770000  0.89830000  0.41649000  1
  O  O216  1  0.59020000  0.64730000  0.94492000  1
  O  O217  1  0.66770000  0.58351000  0.89830000  1
  O  O218  1  0.59020000  0.35270000  0.05508000  1
  O  O219  1  0.66770000  0.41649000  0.10170000  1
  O  O220  1  0.00000000  0.07330000  0.45030000  1
  O  O221  1  0.00000000  0.92670000  0.54970000  1
  O  O222  1  0.50000000  0.54970000  0.07330000  1
  O  O223  1  0.50000000  0.45030000  0.92670000  1
  O  O224  1  0.00000000  0.92670000  0.45030000  1
  O  O225  1  0.00000000  0.07330000  0.54970000  1
  O  O226  1  0.50000000  0.45030000  0.07330000  1
  O  O227  1  0.50000000  0.54970000  0.92670000  1
  O  O228  1  0.12050000  0.00000000  0.45150000  1
  O  O229  1  0.12050000  0.00000000  0.54850000  1
  O  O230  1  0.62050000  0.54850000  0.00000000  1
  O  O231  1  0.62050000  0.45150000  0.00000000  1
  O  O232  1  0.87950000  0.00000000  0.45150000  1
  O  O233  1  0.87950000  0.00000000  0.54850000  1
  O  O234  1  0.37950000  0.45150000  0.00000000  1
  O  O235  1  0.37950000  0.54850000  0.00000000  1
  F  F236  1  0.17170000  0.15510000  0.13480000  1
  F  F237  1  0.06850000  0.20990000  0.16500000  1
  F  F238  1  0.04920000  0.12270000  0.17390000  1
  F  F239  1  0.32090000  0.70290000  0.67240000  1
  F  F240  1  0.42470000  0.75110000  0.71330000  1
  F  F241  1  0.39050000  0.76840000  0.62940000  1
  F  F242  1  0.67170000  0.86520000  0.15510000  1
  F  F243  1  0.56850000  0.83500000  0.20990000  1
  F  F244  1  0.54920000  0.82610000  0.12270000  1
  F  F245  1  0.82090000  0.32760000  0.70290000  1
  F  F246  1  0.92470000  0.28670000  0.75110000  1
  F  F247  1  0.89050000  0.37060000  0.76840000  1
  F  F248  1  0.67910000  0.70290000  0.32760000  1
  F  F249  1  0.57530000  0.75110000  0.28670000  1
  F  F250  1  0.60950000  0.76840000  0.37060000  1
  F  F251  1  0.82830000  0.15510000  0.86520000  1
  F  F252  1  0.93150000  0.20990000  0.83500000  1
  F  F253  1  0.95080000  0.12270000  0.82610000  1
  F  F254  1  0.17910000  0.32760000  0.29710000  1
  F  F255  1  0.07530000  0.28670000  0.24890000  1
  F  F256  1  0.10950000  0.37060000  0.23160000  1
  F  F257  1  0.17910000  0.67240000  0.70290000  1
  F  F258  1  0.07530000  0.71330000  0.75110000  1
  F  F259  1  0.10950000  0.62940000  0.76840000  1
  F  F260  1  0.82830000  0.84490000  0.86520000  1
  F  F261  1  0.93150000  0.79010000  0.83500000  1
  F  F262  1  0.95080000  0.87730000  0.82610000  1
  F  F263  1  0.82830000  0.15510000  0.13480000  1
  F  F264  1  0.93150000  0.20990000  0.16500000  1
  F  F265  1  0.95080000  0.12270000  0.17390000  1
  F  F266  1  0.17910000  0.32760000  0.70290000  1
  F  F267  1  0.07530000  0.28670000  0.75110000  1
  F  F268  1  0.10950000  0.37060000  0.76840000  1
  F  F269  1  0.17910000  0.67240000  0.29710000  1
  F  F270  1  0.07530000  0.71330000  0.24890000  1
  F  F271  1  0.10950000  0.62940000  0.23160000  1
  F  F272  1  0.32090000  0.29710000  0.67240000  1
  F  F273  1  0.42470000  0.24890000  0.71330000  1
  F  F274  1  0.39050000  0.23160000  0.62940000  1
  F  F275  1  0.17170000  0.84490000  0.13480000  1
  F  F276  1  0.06850000  0.79010000  0.16500000  1
  F  F277  1  0.04920000  0.87730000  0.17390000  1
  F  F278  1  0.67170000  0.86520000  0.84490000  1
  F  F279  1  0.56850000  0.83500000  0.79010000  1
  F  F280  1  0.54920000  0.82610000  0.87730000  1
  F  F281  1  0.67170000  0.13480000  0.15510000  1
  F  F282  1  0.56850000  0.16500000  0.20990000  1
  F  F283  1  0.54920000  0.17390000  0.12270000  1
