# generated using pymatgen
data_Zr3H14C38S(O4F3)4
_symmetry_space_group_name_H-M   'P 1'
_cell_length_a   14.72310000
_cell_length_b   24.42000000
_cell_length_c   24.42000000
_cell_angle_alpha   90.00000000
_cell_angle_beta   90.00000000
_cell_angle_gamma   90.00000000
_symmetry_Int_Tables_number   1
_chemical_formula_structural   Zr3H14C38S(O4F3)4
_chemical_formula_sum   'Zr12 H56 C152 S4 O64 F48'
_cell_volume   8779.92045084
_cell_formula_units_Z   4
loop_
 _symmetry_equiv_pos_site_id
 _symmetry_equiv_pos_as_xyz
  1  'x, y, z'
loop_
 _atom_site_type_symbol
 _atom_site_label
 _atom_site_symmetry_multiplicity
 _atom_site_fract_x
 _atom_site_fract_y
 _atom_site_fract_z
 _atom_site_occupancy
  Zr  Zr0  1  0.00000000  0.50000000  0.10036000  1
  Zr  Zr1  1  0.00000000  0.50000000  0.89964000  1
  Zr  Zr2  1  0.50000000  0.89964000  0.50000000  1
  Zr  Zr3  1  0.50000000  0.10036000  0.50000000  1
  Zr  Zr4  1  0.12003000  0.42779000  0.00000000  1
  Zr  Zr5  1  0.12003000  0.57221000  0.00000000  1
  Zr  Zr6  1  0.62003000  0.00000000  0.42779000  1
  Zr  Zr7  1  0.62003000  0.00000000  0.57221000  1
  Zr  Zr8  1  0.87997000  0.57221000  0.00000000  1
  Zr  Zr9  1  0.87997000  0.42779000  0.00000000  1
  Zr  Zr10  1  0.37997000  0.00000000  0.42779000  1
  Zr  Zr11  1  0.37997000  0.00000000  0.57221000  1
  H  H12  1  0.09830000  0.39900000  0.23560000  1
  H  H13  1  0.26970000  0.33360000  0.12610000  1
  H  H14  1  0.09830000  0.60100000  0.76440000  1
  H  H15  1  0.26970000  0.66640000  0.87390000  1
  H  H16  1  0.59830000  0.76440000  0.39900000  1
  H  H17  1  0.76970000  0.87390000  0.33360000  1
  H  H18  1  0.91790000  0.97050000  0.41030000  1
  H  H19  1  0.59830000  0.23560000  0.60100000  1
  H  H20  1  0.76970000  0.12610000  0.66640000  1
  H  H21  1  0.91790000  0.02950000  0.58970000  1
  H  H22  1  0.90170000  0.60100000  0.23560000  1
  H  H23  1  0.73030000  0.66640000  0.12610000  1
  H  H24  1  0.58210000  0.58970000  0.02950000  1
  H  H25  1  0.90170000  0.39900000  0.76440000  1
  H  H26  1  0.73030000  0.33360000  0.87390000  1
  H  H27  1  0.58210000  0.41030000  0.97050000  1
  H  H28  1  0.40170000  0.23560000  0.39900000  1
  H  H29  1  0.23030000  0.12610000  0.33360000  1
  H  H30  1  0.40170000  0.76440000  0.60100000  1
  H  H31  1  0.23030000  0.87390000  0.66640000  1
  H  H32  1  0.90170000  0.60100000  0.76440000  1
  H  H33  1  0.73030000  0.66640000  0.87390000  1
  H  H34  1  0.90170000  0.39900000  0.23560000  1
  H  H35  1  0.73030000  0.33360000  0.12610000  1
  H  H36  1  0.40170000  0.23560000  0.60100000  1
  H  H37  1  0.23030000  0.12610000  0.66640000  1
  H  H38  1  0.08210000  0.02950000  0.58970000  1
  H  H39  1  0.40170000  0.76440000  0.39900000  1
  H  H40  1  0.23030000  0.87390000  0.33360000  1
  H  H41  1  0.08210000  0.97050000  0.41030000  1
  H  H42  1  0.09830000  0.39900000  0.76440000  1
  H  H43  1  0.26970000  0.33360000  0.87390000  1
  H  H44  1  0.41790000  0.41030000  0.97050000  1
  H  H45  1  0.09830000  0.60100000  0.23560000  1
  H  H46  1  0.26970000  0.66640000  0.12610000  1
  H  H47  1  0.41790000  0.58970000  0.02950000  1
  H  H48  1  0.59830000  0.76440000  0.60100000  1
  H  H49  1  0.76970000  0.87390000  0.66640000  1
  H  H50  1  0.59830000  0.23560000  0.39900000  1
  H  H51  1  0.76970000  0.12610000  0.33360000  1
  H  H52  1  0.13434000  0.33184000  0.30741000  1
  H  H53  1  0.33432000  0.73187000  0.80829000  1
  H  H54  1  0.63434000  0.69259000  0.33184000  1
  H  H55  1  0.63434000  0.30741000  0.66816000  1
  H  H56  1  0.66568000  0.73187000  0.19171000  1
  H  H57  1  0.66568000  0.26813000  0.80829000  1
  H  H58  1  0.16568000  0.19171000  0.26813000  1
  H  H59  1  0.36566000  0.69259000  0.66816000  1
  H  H60  1  0.86566000  0.66816000  0.69259000  1
  H  H61  1  0.16568000  0.19171000  0.73187000  1
  H  H62  1  0.16568000  0.80829000  0.26813000  1
  H  H63  1  0.33432000  0.26813000  0.80829000  1
  H  H64  1  0.33432000  0.73187000  0.19171000  1
  H  H65  1  0.63434000  0.69259000  0.66816000  1
  H  H66  1  0.66568000  0.26813000  0.19171000  1
  H  H67  1  0.83432000  0.19171000  0.26813000  1
  C  C68  1  0.14080000  0.40780000  0.13160000  1
  C  C69  1  0.17680000  0.36970000  0.17500000  1
  C  C70  1  0.14120000  0.37150000  0.22630000  1
  C  C71  1  0.16810000  0.33260000  0.26540000  1
  C  C72  1  0.23480000  0.29540000  0.25350000  1
  C  C73  1  0.27560000  0.29690000  0.20160000  1
  C  C74  1  0.24430000  0.33370000  0.16190000  1
  C  C75  1  0.36300000  0.26740000  0.18910000  1
  C  C76  1  0.14080000  0.59220000  0.86840000  1
  C  C77  1  0.17680000  0.63030000  0.82500000  1
  C  C78  1  0.14120000  0.62850000  0.77370000  1
  C  C79  1  0.16810000  0.66740000  0.73460000  1
  C  C80  1  0.23480000  0.70460000  0.74650000  1
  C  C81  1  0.27560000  0.70310000  0.79840000  1
  C  C82  1  0.24430000  0.66630000  0.83810000  1
  C  C83  1  0.12020000  0.66450000  0.68020000  1
  C  C84  1  0.64080000  0.86840000  0.40780000  1
  C  C85  1  0.67680000  0.82500000  0.36970000  1
  C  C86  1  0.64120000  0.77370000  0.37150000  1
  C  C87  1  0.66810000  0.73460000  0.33260000  1
  C  C88  1  0.73480000  0.74650000  0.29540000  1
  C  C89  1  0.77560000  0.79840000  0.29690000  1
  C  C90  1  0.74430000  0.83810000  0.33370000  1
  C  C91  1  0.91560000  0.04450000  0.44860000  1
  C  C92  1  0.81300000  0.04650000  0.45030000  1
  C  C93  1  0.86300000  0.81090000  0.26740000  1
  C  C94  1  0.64080000  0.13160000  0.59220000  1
  C  C95  1  0.67680000  0.17500000  0.63030000  1
  C  C96  1  0.64120000  0.22630000  0.62850000  1
  C  C97  1  0.66810000  0.26540000  0.66740000  1
  C  C98  1  0.73480000  0.25350000  0.70460000  1
  C  C99  1  0.77560000  0.20160000  0.70310000  1
  C  C100  1  0.74430000  0.16190000  0.66630000  1
  C  C101  1  0.91560000  0.95550000  0.55140000  1
  C  C102  1  0.81300000  0.95350000  0.54970000  1
  C  C103  1  0.86300000  0.18910000  0.73260000  1
  C  C104  1  0.85920000  0.59220000  0.13160000  1
  C  C105  1  0.82320000  0.63030000  0.17500000  1
  C  C106  1  0.85880000  0.62850000  0.22630000  1
  C  C107  1  0.83190000  0.66740000  0.26540000  1
  C  C108  1  0.76520000  0.70460000  0.25350000  1
  C  C109  1  0.72440000  0.70310000  0.20160000  1
  C  C110  1  0.75570000  0.66630000  0.16190000  1
  C  C111  1  0.87980000  0.66450000  0.31980000  1
  C  C112  1  0.58440000  0.55140000  0.95550000  1
  C  C113  1  0.68700000  0.54970000  0.95350000  1
  C  C114  1  0.85920000  0.40780000  0.86840000  1
  C  C115  1  0.82320000  0.36970000  0.82500000  1
  C  C116  1  0.85880000  0.37150000  0.77370000  1
  C  C117  1  0.83190000  0.33260000  0.73460000  1
  C  C118  1  0.76520000  0.29540000  0.74650000  1
  C  C119  1  0.72440000  0.29690000  0.79840000  1
  C  C120  1  0.75570000  0.33370000  0.83810000  1
  C  C121  1  0.87980000  0.33550000  0.68020000  1
  C  C122  1  0.58440000  0.44860000  0.04450000  1
  C  C123  1  0.68700000  0.45030000  0.04650000  1
  C  C124  1  0.35920000  0.13160000  0.40780000  1
  C  C125  1  0.32320000  0.17500000  0.36970000  1
  C  C126  1  0.35880000  0.22630000  0.37150000  1
  C  C127  1  0.33190000  0.26540000  0.33260000  1
  C  C128  1  0.26520000  0.25350000  0.29540000  1
  C  C129  1  0.22440000  0.20160000  0.29690000  1
  C  C130  1  0.25570000  0.16190000  0.33370000  1
  C  C131  1  0.37980000  0.31980000  0.33550000  1
  C  C132  1  0.35920000  0.86840000  0.59220000  1
  C  C133  1  0.32320000  0.82500000  0.63030000  1
  C  C134  1  0.35880000  0.77370000  0.62850000  1
  C  C135  1  0.33190000  0.73460000  0.66740000  1
  C  C136  1  0.26520000  0.74650000  0.70460000  1
  C  C137  1  0.22440000  0.79840000  0.70310000  1
  C  C138  1  0.25570000  0.83810000  0.66630000  1
  C  C139  1  0.13700000  0.81090000  0.73260000  1
  C  C140  1  0.85920000  0.59220000  0.86840000  1
  C  C141  1  0.82320000  0.63030000  0.82500000  1
  C  C142  1  0.85880000  0.62850000  0.77370000  1
  C  C143  1  0.83190000  0.66740000  0.73460000  1
  C  C144  1  0.76520000  0.70460000  0.74650000  1
  C  C145  1  0.72440000  0.70310000  0.79840000  1
  C  C146  1  0.75570000  0.66630000  0.83810000  1
  C  C147  1  0.63700000  0.73260000  0.81090000  1
  C  C148  1  0.85920000  0.40780000  0.13160000  1
  C  C149  1  0.82320000  0.36970000  0.17500000  1
  C  C150  1  0.85880000  0.37150000  0.22630000  1
  C  C151  1  0.83190000  0.33260000  0.26540000  1
  C  C152  1  0.76520000  0.29540000  0.25350000  1
  C  C153  1  0.72440000  0.29690000  0.20160000  1
  C  C154  1  0.75570000  0.33370000  0.16190000  1
  C  C155  1  0.87980000  0.33550000  0.31980000  1
  C  C156  1  0.35920000  0.13160000  0.59220000  1
  C  C157  1  0.32320000  0.17500000  0.63030000  1
  C  C158  1  0.35880000  0.22630000  0.62850000  1
  C  C159  1  0.33190000  0.26540000  0.66740000  1
  C  C160  1  0.26520000  0.25350000  0.70460000  1
  C  C161  1  0.22440000  0.20160000  0.70310000  1
  C  C162  1  0.25570000  0.16190000  0.66630000  1
  C  C163  1  0.37980000  0.31980000  0.66450000  1
  C  C164  1  0.08440000  0.95550000  0.55140000  1
  C  C165  1  0.18700000  0.95350000  0.54970000  1
  C  C166  1  0.35920000  0.86840000  0.40780000  1
  C  C167  1  0.32320000  0.82500000  0.36970000  1
  C  C168  1  0.35880000  0.77370000  0.37150000  1
  C  C169  1  0.33190000  0.73460000  0.33260000  1
  C  C170  1  0.26520000  0.74650000  0.29540000  1
  C  C171  1  0.22440000  0.79840000  0.29690000  1
  C  C172  1  0.25570000  0.83810000  0.33370000  1
  C  C173  1  0.37980000  0.68020000  0.33550000  1
  C  C174  1  0.08440000  0.04450000  0.44860000  1
  C  C175  1  0.18700000  0.04650000  0.45030000  1
  C  C176  1  0.14080000  0.40780000  0.86840000  1
  C  C177  1  0.17680000  0.36970000  0.82500000  1
  C  C178  1  0.14120000  0.37150000  0.77370000  1
  C  C179  1  0.16810000  0.33260000  0.73460000  1
  C  C180  1  0.23480000  0.29540000  0.74650000  1
  C  C181  1  0.27560000  0.29690000  0.79840000  1
  C  C182  1  0.24430000  0.33370000  0.83810000  1
  C  C183  1  0.12020000  0.33550000  0.68020000  1
  C  C184  1  0.41560000  0.44860000  0.04450000  1
  C  C185  1  0.31300000  0.45030000  0.04650000  1
  C  C186  1  0.14080000  0.59220000  0.13160000  1
  C  C187  1  0.17680000  0.63030000  0.17500000  1
  C  C188  1  0.14120000  0.62850000  0.22630000  1
  C  C189  1  0.16810000  0.66740000  0.26540000  1
  C  C190  1  0.23480000  0.70460000  0.25350000  1
  C  C191  1  0.27560000  0.70310000  0.20160000  1
  C  C192  1  0.24430000  0.66630000  0.16190000  1
  C  C193  1  0.12020000  0.66450000  0.31980000  1
  C  C194  1  0.41560000  0.55140000  0.95550000  1
  C  C195  1  0.31300000  0.54970000  0.95350000  1
  C  C196  1  0.64080000  0.86840000  0.59220000  1
  C  C197  1  0.67680000  0.82500000  0.63030000  1
  C  C198  1  0.64120000  0.77370000  0.62850000  1
  C  C199  1  0.66810000  0.73460000  0.66740000  1
  C  C200  1  0.73480000  0.74650000  0.70460000  1
  C  C201  1  0.77560000  0.79840000  0.70310000  1
  C  C202  1  0.74430000  0.83810000  0.66630000  1
  C  C203  1  0.86300000  0.81090000  0.73260000  1
  C  C204  1  0.64080000  0.13160000  0.40780000  1
  C  C205  1  0.67680000  0.17500000  0.36970000  1
  C  C206  1  0.64120000  0.22630000  0.37150000  1
  C  C207  1  0.66810000  0.26540000  0.33260000  1
  C  C208  1  0.73480000  0.25350000  0.29540000  1
  C  C209  1  0.77560000  0.20160000  0.29690000  1
  C  C210  1  0.74430000  0.16190000  0.33370000  1
  C  C211  1  0.62020000  0.31980000  0.33550000  1
  C  C212  1  0.45180000  0.42540000  0.00000000  1
  C  C213  1  0.45180000  0.57460000  0.00000000  1
  C  C214  1  0.95180000  0.00000000  0.42540000  1
  C  C215  1  0.95180000  0.00000000  0.57460000  1
  C  C216  1  0.54820000  0.57460000  0.00000000  1
  C  C217  1  0.54820000  0.42540000  0.00000000  1
  C  C218  1  0.04820000  0.00000000  0.42540000  1
  C  C219  1  0.04820000  0.00000000  0.57460000  1
  S  S220  1  0.00000000  0.08560000  0.46930000  1
  S  S221  1  0.00000000  0.91440000  0.53070000  1
  S  S222  1  0.50000000  0.53070000  0.91440000  1
  S  S223  1  0.50000000  0.46930000  0.08560000  1
  O  O224  1  0.09060000  0.44546000  0.14745000  1
  O  O225  1  0.16600000  0.39760000  0.08340000  1
  O  O226  1  0.09060000  0.55454000  0.85255000  1
  O  O227  1  0.16600000  0.60240000  0.91660000  1
  O  O228  1  0.59060000  0.85255000  0.44546000  1
  O  O229  1  0.66600000  0.91660000  0.39760000  1
  O  O230  1  0.80410000  0.09270000  0.47400000  1
  O  O231  1  0.59060000  0.14745000  0.55454000  1
  O  O232  1  0.66600000  0.08340000  0.60240000  1
  O  O233  1  0.80410000  0.90730000  0.52600000  1
  O  O234  1  0.90940000  0.55454000  0.14745000  1
  O  O235  1  0.83400000  0.60240000  0.08340000  1
  O  O236  1  0.69590000  0.52600000  0.90730000  1
  O  O237  1  0.90940000  0.44546000  0.85255000  1
  O  O238  1  0.83400000  0.39760000  0.91660000  1
  O  O239  1  0.69590000  0.47400000  0.09270000  1
  O  O240  1  0.40940000  0.14745000  0.44546000  1
  O  O241  1  0.33400000  0.08340000  0.39760000  1
  O  O242  1  0.40940000  0.85255000  0.55454000  1
  O  O243  1  0.33400000  0.91660000  0.60240000  1
  O  O244  1  0.90940000  0.55454000  0.85255000  1
  O  O245  1  0.83400000  0.60240000  0.91660000  1
  O  O246  1  0.90940000  0.44546000  0.14745000  1
  O  O247  1  0.83400000  0.39760000  0.08340000  1
  O  O248  1  0.40940000  0.14745000  0.55454000  1
  O  O249  1  0.33400000  0.08340000  0.60240000  1
  O  O250  1  0.19590000  0.90730000  0.52600000  1
  O  O251  1  0.40940000  0.85255000  0.44546000  1
  O  O252  1  0.33400000  0.91660000  0.39760000  1
  O  O253  1  0.19590000  0.09270000  0.47400000  1
  O  O254  1  0.09060000  0.44546000  0.85255000  1
  O  O255  1  0.16600000  0.39760000  0.91660000  1
  O  O256  1  0.30410000  0.47400000  0.09270000  1
  O  O257  1  0.09060000  0.55454000  0.14745000  1
  O  O258  1  0.16600000  0.60240000  0.08340000  1
  O  O259  1  0.30410000  0.52600000  0.90730000  1
  O  O260  1  0.59060000  0.85255000  0.55454000  1
  O  O261  1  0.66600000  0.91660000  0.60240000  1
  O  O262  1  0.59060000  0.14745000  0.44546000  1
  O  O263  1  0.66600000  0.08340000  0.39760000  1
  O  O264  1  0.26960000  0.42770000  0.00000000  1
  O  O265  1  0.26960000  0.57230000  0.00000000  1
  O  O266  1  0.76960000  0.00000000  0.42770000  1
  O  O267  1  0.76960000  0.00000000  0.57230000  1
  O  O268  1  0.73040000  0.57230000  0.00000000  1
  O  O269  1  0.73040000  0.42770000  0.00000000  1
  O  O270  1  0.23040000  0.00000000  0.42770000  1
  O  O271  1  0.23040000  0.00000000  0.57230000  1
  O  O272  1  0.12010000  0.50000000  0.04920000  1
  O  O273  1  0.12010000  0.50000000  0.95080000  1
  O  O274  1  0.62010000  0.95080000  0.50000000  1
  O  O275  1  0.62010000  0.04920000  0.50000000  1
  O  O276  1  0.87990000  0.50000000  0.04920000  1
  O  O277  1  0.87990000  0.50000000  0.95080000  1
  O  O278  1  0.37990000  0.04920000  0.50000000  1
  O  O279  1  0.37990000  0.95080000  0.50000000  1
  O  O280  1  0.00000000  0.42740000  0.04890000  1
  O  O281  1  0.00000000  0.57260000  0.95110000  1
  O  O282  1  0.50000000  0.95110000  0.42740000  1
  O  O283  1  0.50000000  0.04890000  0.57260000  1
  O  O284  1  0.00000000  0.57260000  0.04890000  1
  O  O285  1  0.00000000  0.42740000  0.95110000  1
  O  O286  1  0.50000000  0.04890000  0.42740000  1
  O  O287  1  0.50000000  0.95110000  0.57260000  1
  F  F288  1  0.43470000  0.26990000  0.22440000  1
  F  F289  1  0.40860000  0.28240000  0.14090000  1
  F  F290  1  0.35860000  0.21210000  0.17950000  1
  F  F291  1  0.05420000  0.62400000  0.67420000  1
  F  F292  1  0.17310000  0.65340000  0.63490000  1
  F  F293  1  0.07170000  0.70880000  0.66210000  1
  F  F294  1  0.93470000  0.77560000  0.26990000  1
  F  F295  1  0.90860000  0.85910000  0.28240000  1
  F  F296  1  0.85860000  0.82050000  0.21210000  1
  F  F297  1  0.93470000  0.22440000  0.73010000  1
  F  F298  1  0.90860000  0.14090000  0.71760000  1
  F  F299  1  0.85860000  0.17950000  0.78790000  1
  F  F300  1  0.94580000  0.62400000  0.32580000  1
  F  F301  1  0.82690000  0.65340000  0.36510000  1
  F  F302  1  0.92830000  0.70880000  0.33790000  1
  F  F303  1  0.94580000  0.37600000  0.67420000  1
  F  F304  1  0.82690000  0.34660000  0.63490000  1
  F  F305  1  0.92830000  0.29120000  0.66210000  1
  F  F306  1  0.44580000  0.32580000  0.37600000  1
  F  F307  1  0.32690000  0.36510000  0.34660000  1
  F  F308  1  0.42830000  0.33790000  0.29120000  1
  F  F309  1  0.06530000  0.77560000  0.73010000  1
  F  F310  1  0.09140000  0.85910000  0.71760000  1
  F  F311  1  0.14140000  0.82050000  0.78790000  1
  F  F312  1  0.56530000  0.73010000  0.77560000  1
  F  F313  1  0.59140000  0.71760000  0.85910000  1
  F  F314  1  0.64140000  0.78790000  0.82050000  1
  F  F315  1  0.94580000  0.37600000  0.32580000  1
  F  F316  1  0.82690000  0.34660000  0.36510000  1
  F  F317  1  0.92830000  0.29120000  0.33790000  1
  F  F318  1  0.44580000  0.32580000  0.62400000  1
  F  F319  1  0.32690000  0.36510000  0.65340000  1
  F  F320  1  0.42830000  0.33790000  0.70880000  1
  F  F321  1  0.44580000  0.67420000  0.37600000  1
  F  F322  1  0.32690000  0.63490000  0.34660000  1
  F  F323  1  0.42830000  0.66210000  0.29120000  1
  F  F324  1  0.05420000  0.37600000  0.67420000  1
  F  F325  1  0.17310000  0.34660000  0.63490000  1
  F  F326  1  0.07170000  0.29120000  0.66210000  1
  F  F327  1  0.05420000  0.62400000  0.32580000  1
  F  F328  1  0.17310000  0.65340000  0.36510000  1
  F  F329  1  0.07170000  0.70880000  0.33790000  1
  F  F330  1  0.93470000  0.77560000  0.73010000  1
  F  F331  1  0.90860000  0.85910000  0.71760000  1
  F  F332  1  0.85860000  0.82050000  0.78790000  1
  F  F333  1  0.55420000  0.32580000  0.37600000  1
  F  F334  1  0.67310000  0.36510000  0.34660000  1
  F  F335  1  0.57170000  0.33790000  0.29120000  1
