# generated using pymatgen
data_Zr3H12C36(OF)14
_symmetry_space_group_name_H-M   'P 1'
_cell_length_a   15.00940000
_cell_length_b   34.35620000
_cell_length_c   34.35620000
_cell_angle_alpha   90.00000000
_cell_angle_beta   90.00000000
_cell_angle_gamma   90.00000000
_symmetry_Int_Tables_number   1
_chemical_formula_structural   Zr3H12C36(OF)14
_chemical_formula_sum   'Zr24 H96 C288 O112 F112'
_cell_volume   17716.32245230
_cell_formula_units_Z   8
loop_
 _symmetry_equiv_pos_site_id
 _symmetry_equiv_pos_as_xyz
  1  'x, y, z'
loop_
 _atom_site_type_symbol
 _atom_site_label
 _atom_site_symmetry_multiplicity
 _atom_site_fract_x
 _atom_site_fract_y
 _atom_site_fract_z
 _atom_site_occupancy
  Zr  Zr0  1  0.00000000  0.55045000  0.05045000  1
  Zr  Zr1  1  0.00000000  0.94955000  0.44955000  1
  Zr  Zr2  1  0.50000000  0.44955000  0.55045000  1
  Zr  Zr3  1  0.50000000  0.05045000  0.94955000  1
  Zr  Zr4  1  0.00000000  0.44955000  0.94955000  1
  Zr  Zr5  1  0.00000000  0.05045000  0.55045000  1
  Zr  Zr6  1  0.50000000  0.55045000  0.44955000  1
  Zr  Zr7  1  0.50000000  0.94955000  0.05045000  1
  Zr  Zr8  1  0.13409000  0.46921000  0.03079000  1
  Zr  Zr9  1  0.09876000  0.54146000  0.95854000  1
  Zr  Zr10  1  0.13409000  0.03079000  0.46921000  1
  Zr  Zr11  1  0.09876000  0.95854000  0.54146000  1
  Zr  Zr12  1  0.63409000  0.46921000  0.46921000  1
  Zr  Zr13  1  0.59876000  0.54146000  0.54146000  1
  Zr  Zr14  1  0.63409000  0.03079000  0.03079000  1
  Zr  Zr15  1  0.59876000  0.95854000  0.95854000  1
  Zr  Zr16  1  0.36591000  0.53079000  0.53079000  1
  Zr  Zr17  1  0.40124000  0.45854000  0.45854000  1
  Zr  Zr18  1  0.36591000  0.96921000  0.96921000  1
  Zr  Zr19  1  0.40124000  0.04146000  0.04146000  1
  Zr  Zr20  1  0.86591000  0.53079000  0.96921000  1
  Zr  Zr21  1  0.90124000  0.45854000  0.04146000  1
  Zr  Zr22  1  0.86591000  0.96921000  0.53079000  1
  Zr  Zr23  1  0.90124000  0.04146000  0.45854000  1
  H  H24  1  0.09733000  0.56905000  0.16743000  1
  H  H25  1  0.30671000  0.48766000  0.13144000  1
  H  H26  1  0.43396000  0.56936000  0.33123000  1
  H  H27  1  0.26196000  0.46688000  0.34219000  1
  H  H28  1  0.16052000  0.56971000  0.23575000  1
  H  H29  1  0.21715000  0.47366000  0.27153000  1
  H  H30  1  0.09733000  0.93095000  0.33257000  1
  H  H31  1  0.30671000  0.01234000  0.36856000  1
  H  H32  1  0.43396000  0.93064000  0.16877000  1
  H  H33  1  0.26196000  0.03312000  0.15781000  1
  H  H34  1  0.16052000  0.93029000  0.26425000  1
  H  H35  1  0.21715000  0.02634000  0.22847000  1
  H  H36  1  0.59733000  0.33257000  0.56905000  1
  H  H37  1  0.80671000  0.36856000  0.48766000  1
  H  H38  1  0.93396000  0.16877000  0.56936000  1
  H  H39  1  0.76196000  0.15781000  0.46688000  1
  H  H40  1  0.66052000  0.26425000  0.56971000  1
  H  H41  1  0.71715000  0.22847000  0.47366000  1
  H  H42  1  0.59733000  0.16743000  0.93095000  1
  H  H43  1  0.80671000  0.13144000  0.01234000  1
  H  H44  1  0.93396000  0.33123000  0.93064000  1
  H  H45  1  0.76196000  0.34219000  0.03312000  1
  H  H46  1  0.66052000  0.23575000  0.93029000  1
  H  H47  1  0.71715000  0.27153000  0.02634000  1
  H  H48  1  0.40267000  0.43095000  0.66743000  1
  H  H49  1  0.19329000  0.51234000  0.63144000  1
  H  H50  1  0.06604000  0.43064000  0.83123000  1
  H  H51  1  0.23804000  0.53312000  0.84219000  1
  H  H52  1  0.33948000  0.43029000  0.73575000  1
  H  H53  1  0.28285000  0.52634000  0.77153000  1
  H  H54  1  0.40267000  0.06905000  0.83257000  1
  H  H55  1  0.19329000  0.98766000  0.86856000  1
  H  H56  1  0.06604000  0.06936000  0.66877000  1
  H  H57  1  0.23804000  0.96688000  0.65781000  1
  H  H58  1  0.33948000  0.06971000  0.76425000  1
  H  H59  1  0.28285000  0.97366000  0.72847000  1
  H  H60  1  0.90267000  0.66743000  0.06905000  1
  H  H61  1  0.69329000  0.63144000  0.98766000  1
  H  H62  1  0.56604000  0.83123000  0.06936000  1
  H  H63  1  0.73804000  0.84219000  0.96688000  1
  H  H64  1  0.83948000  0.73575000  0.06971000  1
  H  H65  1  0.78285000  0.77153000  0.97366000  1
  H  H66  1  0.90267000  0.83257000  0.43095000  1
  H  H67  1  0.69329000  0.86856000  0.51234000  1
  H  H68  1  0.56604000  0.66877000  0.43064000  1
  H  H69  1  0.73804000  0.65781000  0.53312000  1
  H  H70  1  0.83948000  0.76425000  0.43029000  1
  H  H71  1  0.78285000  0.72847000  0.52634000  1
  H  H72  1  0.90267000  0.43095000  0.83257000  1
  H  H73  1  0.69329000  0.51234000  0.86856000  1
  H  H74  1  0.56604000  0.43064000  0.66877000  1
  H  H75  1  0.73804000  0.53312000  0.65781000  1
  H  H76  1  0.83948000  0.43029000  0.76425000  1
  H  H77  1  0.78285000  0.52634000  0.72847000  1
  H  H78  1  0.90267000  0.06905000  0.66743000  1
  H  H79  1  0.69329000  0.98766000  0.63144000  1
  H  H80  1  0.56604000  0.06936000  0.83123000  1
  H  H81  1  0.73804000  0.96688000  0.84219000  1
  H  H82  1  0.83948000  0.06971000  0.73575000  1
  H  H83  1  0.78285000  0.97366000  0.77153000  1
  H  H84  1  0.40267000  0.66743000  0.43095000  1
  H  H85  1  0.19329000  0.63144000  0.51234000  1
  H  H86  1  0.06604000  0.83123000  0.43064000  1
  H  H87  1  0.23804000  0.84219000  0.53312000  1
  H  H88  1  0.33948000  0.73575000  0.43029000  1
  H  H89  1  0.28285000  0.77153000  0.52634000  1
  H  H90  1  0.40267000  0.83257000  0.06905000  1
  H  H91  1  0.19329000  0.86856000  0.98766000  1
  H  H92  1  0.06604000  0.66877000  0.06936000  1
  H  H93  1  0.23804000  0.65781000  0.96688000  1
  H  H94  1  0.33948000  0.76425000  0.06971000  1
  H  H95  1  0.28285000  0.72847000  0.97366000  1
  H  H96  1  0.59733000  0.56905000  0.33257000  1
  H  H97  1  0.80671000  0.48766000  0.36856000  1
  H  H98  1  0.93396000  0.56936000  0.16877000  1
  H  H99  1  0.76196000  0.46688000  0.15781000  1
  H  H100  1  0.66052000  0.56971000  0.26425000  1
  H  H101  1  0.71715000  0.47366000  0.22847000  1
  H  H102  1  0.59733000  0.93095000  0.16743000  1
  H  H103  1  0.80671000  0.01234000  0.13144000  1
  H  H104  1  0.93396000  0.93064000  0.33123000  1
  H  H105  1  0.76196000  0.03312000  0.34219000  1
  H  H106  1  0.66052000  0.93029000  0.23575000  1
  H  H107  1  0.71715000  0.02634000  0.27153000  1
  H  H108  1  0.09733000  0.33257000  0.93095000  1
  H  H109  1  0.30671000  0.36856000  0.01234000  1
  H  H110  1  0.43396000  0.16877000  0.93064000  1
  H  H111  1  0.26196000  0.15781000  0.03312000  1
  H  H112  1  0.16052000  0.26425000  0.93029000  1
  H  H113  1  0.21715000  0.22847000  0.02634000  1
  H  H114  1  0.09733000  0.16743000  0.56905000  1
  H  H115  1  0.30671000  0.13144000  0.48766000  1
  H  H116  1  0.43396000  0.33123000  0.56936000  1
  H  H117  1  0.26196000  0.34219000  0.46688000  1
  H  H118  1  0.16052000  0.23575000  0.56971000  1
  H  H119  1  0.21715000  0.27153000  0.47366000  1
  C  C120  1  0.15630000  0.52630000  0.10660000  1
  C  C121  1  0.19890000  0.52830000  0.14600000  1
  C  C122  1  0.15870000  0.55090000  0.17470000  1
  C  C123  1  0.19350000  0.55130000  0.21220000  1
  C  C124  1  0.26840000  0.52930000  0.22100000  1
  C  C125  1  0.30860000  0.50670000  0.19240000  1
  C  C126  1  0.27380000  0.50620000  0.15490000  1
  C  C127  1  0.30100000  0.52520000  0.26260000  1
  C  C128  1  0.36050000  0.55150000  0.27900000  1
  C  C129  1  0.38510000  0.54780000  0.31780000  1
  C  C130  1  0.35010000  0.51780000  0.34020000  1
  C  C131  1  0.29060000  0.49150000  0.32380000  1
  C  C132  1  0.26600000  0.49520000  0.28500000  1
  C  C133  1  0.39350000  0.58330000  0.25770000  1
  C  C134  1  0.38260000  0.51540000  0.38150000  1
  C  C135  1  0.46490000  0.46730000  0.98600000  1
  C  C136  1  0.39100000  0.48170000  0.20060000  1
  C  C137  1  0.15630000  0.97370000  0.39340000  1
  C  C138  1  0.19890000  0.97170000  0.35400000  1
  C  C139  1  0.15870000  0.94910000  0.32530000  1
  C  C140  1  0.19350000  0.94870000  0.28780000  1
  C  C141  1  0.26840000  0.97070000  0.27900000  1
  C  C142  1  0.30860000  0.99330000  0.30760000  1
  C  C143  1  0.27380000  0.99380000  0.34510000  1
  C  C144  1  0.30100000  0.97480000  0.23740000  1
  C  C145  1  0.36050000  0.94850000  0.22100000  1
  C  C146  1  0.38510000  0.95220000  0.18220000  1
  C  C147  1  0.35010000  0.98220000  0.15980000  1
  C  C148  1  0.29060000  0.00850000  0.17620000  1
  C  C149  1  0.26600000  0.00480000  0.21500000  1
  C  C150  1  0.39350000  0.91670000  0.24230000  1
  C  C151  1  0.38260000  0.98460000  0.11850000  1
  C  C152  1  0.46490000  0.03270000  0.51400000  1
  C  C153  1  0.39100000  0.01830000  0.29940000  1
  C  C154  1  0.65630000  0.39340000  0.52630000  1
  C  C155  1  0.69890000  0.35400000  0.52830000  1
  C  C156  1  0.65870000  0.32530000  0.55090000  1
  C  C157  1  0.69350000  0.28780000  0.55130000  1
  C  C158  1  0.76840000  0.27900000  0.52930000  1
  C  C159  1  0.80860000  0.30760000  0.50670000  1
  C  C160  1  0.77380000  0.34510000  0.50620000  1
  C  C161  1  0.80100000  0.23740000  0.52520000  1
  C  C162  1  0.86050000  0.22100000  0.55150000  1
  C  C163  1  0.88510000  0.18220000  0.54780000  1
  C  C164  1  0.85010000  0.15980000  0.51780000  1
  C  C165  1  0.79060000  0.17620000  0.49150000  1
  C  C166  1  0.76600000  0.21500000  0.49520000  1
  C  C167  1  0.89350000  0.24230000  0.58330000  1
  C  C168  1  0.88260000  0.11850000  0.51540000  1
  C  C169  1  0.96490000  0.51400000  0.46730000  1
  C  C170  1  0.89100000  0.29940000  0.48170000  1
  C  C171  1  0.65630000  0.10660000  0.97370000  1
  C  C172  1  0.69890000  0.14600000  0.97170000  1
  C  C173  1  0.65870000  0.17470000  0.94910000  1
  C  C174  1  0.69350000  0.21220000  0.94870000  1
  C  C175  1  0.76840000  0.22100000  0.97070000  1
  C  C176  1  0.80860000  0.19240000  0.99330000  1
  C  C177  1  0.77380000  0.15490000  0.99380000  1
  C  C178  1  0.80100000  0.26260000  0.97480000  1
  C  C179  1  0.86050000  0.27900000  0.94850000  1
  C  C180  1  0.88510000  0.31780000  0.95220000  1
  C  C181  1  0.85010000  0.34020000  0.98220000  1
  C  C182  1  0.79060000  0.32380000  0.00850000  1
  C  C183  1  0.76600000  0.28500000  0.00480000  1
  C  C184  1  0.89350000  0.25770000  0.91670000  1
  C  C185  1  0.88260000  0.38150000  0.98460000  1
  C  C186  1  0.96490000  0.98600000  0.03270000  1
  C  C187  1  0.89100000  0.20060000  0.01830000  1
  C  C188  1  0.34370000  0.47370000  0.60660000  1
  C  C189  1  0.30110000  0.47170000  0.64600000  1
  C  C190  1  0.34130000  0.44910000  0.67470000  1
  C  C191  1  0.30650000  0.44870000  0.71220000  1
  C  C192  1  0.23160000  0.47070000  0.72100000  1
  C  C193  1  0.19140000  0.49330000  0.69240000  1
  C  C194  1  0.22620000  0.49380000  0.65490000  1
  C  C195  1  0.19900000  0.47480000  0.76260000  1
  C  C196  1  0.13950000  0.44850000  0.77900000  1
  C  C197  1  0.11490000  0.45220000  0.81780000  1
  C  C198  1  0.14990000  0.48220000  0.84020000  1
  C  C199  1  0.20940000  0.50850000  0.82380000  1
  C  C200  1  0.23400000  0.50480000  0.78500000  1
  C  C201  1  0.10650000  0.41670000  0.75770000  1
  C  C202  1  0.11740000  0.48460000  0.88150000  1
  C  C203  1  0.03510000  0.53270000  0.48600000  1
  C  C204  1  0.10900000  0.51830000  0.70060000  1
  C  C205  1  0.34370000  0.02630000  0.89340000  1
  C  C206  1  0.30110000  0.02830000  0.85400000  1
  C  C207  1  0.34130000  0.05090000  0.82530000  1
  C  C208  1  0.30650000  0.05130000  0.78780000  1
  C  C209  1  0.23160000  0.02930000  0.77900000  1
  C  C210  1  0.19140000  0.00670000  0.80760000  1
  C  C211  1  0.22620000  0.00620000  0.84510000  1
  C  C212  1  0.19900000  0.02520000  0.73740000  1
  C  C213  1  0.13950000  0.05150000  0.72100000  1
  C  C214  1  0.11490000  0.04780000  0.68220000  1
  C  C215  1  0.14990000  0.01780000  0.65980000  1
  C  C216  1  0.20940000  0.99150000  0.67620000  1
  C  C217  1  0.23400000  0.99520000  0.71500000  1
  C  C218  1  0.10650000  0.08330000  0.74230000  1
  C  C219  1  0.11740000  0.01540000  0.61850000  1
  C  C220  1  0.03510000  0.96730000  0.01400000  1
  C  C221  1  0.10900000  0.98170000  0.79940000  1
  C  C222  1  0.84370000  0.60660000  0.02630000  1
  C  C223  1  0.80110000  0.64600000  0.02830000  1
  C  C224  1  0.84130000  0.67470000  0.05090000  1
  C  C225  1  0.80650000  0.71220000  0.05130000  1
  C  C226  1  0.73160000  0.72100000  0.02930000  1
  C  C227  1  0.69140000  0.69240000  0.00670000  1
  C  C228  1  0.72620000  0.65490000  0.00620000  1
  C  C229  1  0.69900000  0.76260000  0.02520000  1
  C  C230  1  0.63950000  0.77900000  0.05150000  1
  C  C231  1  0.61490000  0.81780000  0.04780000  1
  C  C232  1  0.64990000  0.84020000  0.01780000  1
  C  C233  1  0.70940000  0.82380000  0.99150000  1
  C  C234  1  0.73400000  0.78500000  0.99520000  1
  C  C235  1  0.60650000  0.75770000  0.08330000  1
  C  C236  1  0.61740000  0.88150000  0.01540000  1
  C  C237  1  0.53510000  0.48600000  0.96730000  1
  C  C238  1  0.60900000  0.70060000  0.98170000  1
  C  C239  1  0.84370000  0.89340000  0.47370000  1
  C  C240  1  0.80110000  0.85400000  0.47170000  1
  C  C241  1  0.84130000  0.82530000  0.44910000  1
  C  C242  1  0.80650000  0.78780000  0.44870000  1
  C  C243  1  0.73160000  0.77900000  0.47070000  1
  C  C244  1  0.69140000  0.80760000  0.49330000  1
  C  C245  1  0.72620000  0.84510000  0.49380000  1
  C  C246  1  0.69900000  0.73740000  0.47480000  1
  C  C247  1  0.63950000  0.72100000  0.44850000  1
  C  C248  1  0.61490000  0.68220000  0.45220000  1
  C  C249  1  0.64990000  0.65980000  0.48220000  1
  C  C250  1  0.70940000  0.67620000  0.50850000  1
  C  C251  1  0.73400000  0.71500000  0.50480000  1
  C  C252  1  0.60650000  0.74230000  0.41670000  1
  C  C253  1  0.61740000  0.61850000  0.48460000  1
  C  C254  1  0.53510000  0.01400000  0.53270000  1
  C  C255  1  0.60900000  0.79940000  0.51830000  1
  C  C256  1  0.84370000  0.47370000  0.89340000  1
  C  C257  1  0.80110000  0.47170000  0.85400000  1
  C  C258  1  0.84130000  0.44910000  0.82530000  1
  C  C259  1  0.80650000  0.44870000  0.78780000  1
  C  C260  1  0.73160000  0.47070000  0.77900000  1
  C  C261  1  0.69140000  0.49330000  0.80760000  1
  C  C262  1  0.72620000  0.49380000  0.84510000  1
  C  C263  1  0.69900000  0.47480000  0.73740000  1
  C  C264  1  0.63950000  0.44850000  0.72100000  1
  C  C265  1  0.61490000  0.45220000  0.68220000  1
  C  C266  1  0.64990000  0.48220000  0.65980000  1
  C  C267  1  0.70940000  0.50850000  0.67620000  1
  C  C268  1  0.73400000  0.50480000  0.71500000  1
  C  C269  1  0.60650000  0.41670000  0.74230000  1
  C  C270  1  0.61740000  0.48460000  0.61850000  1
  C  C271  1  0.53510000  0.53270000  0.01400000  1
  C  C272  1  0.60900000  0.51830000  0.79940000  1
  C  C273  1  0.84370000  0.02630000  0.60660000  1
  C  C274  1  0.80110000  0.02830000  0.64600000  1
  C  C275  1  0.84130000  0.05090000  0.67470000  1
  C  C276  1  0.80650000  0.05130000  0.71220000  1
  C  C277  1  0.73160000  0.02930000  0.72100000  1
  C  C278  1  0.69140000  0.00670000  0.69240000  1
  C  C279  1  0.72620000  0.00620000  0.65490000  1
  C  C280  1  0.69900000  0.02520000  0.76260000  1
  C  C281  1  0.63950000  0.05150000  0.77900000  1
  C  C282  1  0.61490000  0.04780000  0.81780000  1
  C  C283  1  0.64990000  0.01780000  0.84020000  1
  C  C284  1  0.70940000  0.99150000  0.82380000  1
  C  C285  1  0.73400000  0.99520000  0.78500000  1
  C  C286  1  0.60650000  0.08330000  0.75770000  1
  C  C287  1  0.61740000  0.01540000  0.88150000  1
  C  C288  1  0.53510000  0.96730000  0.48600000  1
  C  C289  1  0.60900000  0.98170000  0.70060000  1
  C  C290  1  0.34370000  0.60660000  0.47370000  1
  C  C291  1  0.30110000  0.64600000  0.47170000  1
  C  C292  1  0.34130000  0.67470000  0.44910000  1
  C  C293  1  0.30650000  0.71220000  0.44870000  1
  C  C294  1  0.23160000  0.72100000  0.47070000  1
  C  C295  1  0.19140000  0.69240000  0.49330000  1
  C  C296  1  0.22620000  0.65490000  0.49380000  1
  C  C297  1  0.19900000  0.76260000  0.47480000  1
  C  C298  1  0.13950000  0.77900000  0.44850000  1
  C  C299  1  0.11490000  0.81780000  0.45220000  1
  C  C300  1  0.14990000  0.84020000  0.48220000  1
  C  C301  1  0.20940000  0.82380000  0.50850000  1
  C  C302  1  0.23400000  0.78500000  0.50480000  1
  C  C303  1  0.10650000  0.75770000  0.41670000  1
  C  C304  1  0.11740000  0.88150000  0.48460000  1
  C  C305  1  0.03510000  0.48600000  0.53270000  1
  C  C306  1  0.10900000  0.70060000  0.51830000  1
  C  C307  1  0.34370000  0.89340000  0.02630000  1
  C  C308  1  0.30110000  0.85400000  0.02830000  1
  C  C309  1  0.34130000  0.82530000  0.05090000  1
  C  C310  1  0.30650000  0.78780000  0.05130000  1
  C  C311  1  0.23160000  0.77900000  0.02930000  1
  C  C312  1  0.19140000  0.80760000  0.00670000  1
  C  C313  1  0.22620000  0.84510000  0.00620000  1
  C  C314  1  0.19900000  0.73740000  0.02520000  1
  C  C315  1  0.13950000  0.72100000  0.05150000  1
  C  C316  1  0.11490000  0.68220000  0.04780000  1
  C  C317  1  0.14990000  0.65980000  0.01780000  1
  C  C318  1  0.20940000  0.67620000  0.99150000  1
  C  C319  1  0.23400000  0.71500000  0.99520000  1
  C  C320  1  0.10650000  0.74230000  0.08330000  1
  C  C321  1  0.11740000  0.61850000  0.01540000  1
  C  C322  1  0.03510000  0.01400000  0.96730000  1
  C  C323  1  0.10900000  0.79940000  0.98170000  1
  C  C324  1  0.65630000  0.52630000  0.39340000  1
  C  C325  1  0.69890000  0.52830000  0.35400000  1
  C  C326  1  0.65870000  0.55090000  0.32530000  1
  C  C327  1  0.69350000  0.55130000  0.28780000  1
  C  C328  1  0.76840000  0.52930000  0.27900000  1
  C  C329  1  0.80860000  0.50670000  0.30760000  1
  C  C330  1  0.77380000  0.50620000  0.34510000  1
  C  C331  1  0.80100000  0.52520000  0.23740000  1
  C  C332  1  0.86050000  0.55150000  0.22100000  1
  C  C333  1  0.88510000  0.54780000  0.18220000  1
  C  C334  1  0.85010000  0.51780000  0.15980000  1
  C  C335  1  0.79060000  0.49150000  0.17620000  1
  C  C336  1  0.76600000  0.49520000  0.21500000  1
  C  C337  1  0.89350000  0.58330000  0.24230000  1
  C  C338  1  0.88260000  0.51540000  0.11850000  1
  C  C339  1  0.96490000  0.46730000  0.51400000  1
  C  C340  1  0.89100000  0.48170000  0.29940000  1
  C  C341  1  0.65630000  0.97370000  0.10660000  1
  C  C342  1  0.69890000  0.97170000  0.14600000  1
  C  C343  1  0.65870000  0.94910000  0.17470000  1
  C  C344  1  0.69350000  0.94870000  0.21220000  1
  C  C345  1  0.76840000  0.97070000  0.22100000  1
  C  C346  1  0.80860000  0.99330000  0.19240000  1
  C  C347  1  0.77380000  0.99380000  0.15490000  1
  C  C348  1  0.80100000  0.97480000  0.26260000  1
  C  C349  1  0.86050000  0.94850000  0.27900000  1
  C  C350  1  0.88510000  0.95220000  0.31780000  1
  C  C351  1  0.85010000  0.98220000  0.34020000  1
  C  C352  1  0.79060000  0.00850000  0.32380000  1
  C  C353  1  0.76600000  0.00480000  0.28500000  1
  C  C354  1  0.89350000  0.91670000  0.25770000  1
  C  C355  1  0.88260000  0.98460000  0.38150000  1
  C  C356  1  0.96490000  0.03270000  0.98600000  1
  C  C357  1  0.89100000  0.01830000  0.20060000  1
  C  C358  1  0.15630000  0.39340000  0.97370000  1
  C  C359  1  0.19890000  0.35400000  0.97170000  1
  C  C360  1  0.15870000  0.32530000  0.94910000  1
  C  C361  1  0.19350000  0.28780000  0.94870000  1
  C  C362  1  0.26840000  0.27900000  0.97070000  1
  C  C363  1  0.30860000  0.30760000  0.99330000  1
  C  C364  1  0.27380000  0.34510000  0.99380000  1
  C  C365  1  0.30100000  0.23740000  0.97480000  1
  C  C366  1  0.36050000  0.22100000  0.94850000  1
  C  C367  1  0.38510000  0.18220000  0.95220000  1
  C  C368  1  0.35010000  0.15980000  0.98220000  1
  C  C369  1  0.29060000  0.17620000  0.00850000  1
  C  C370  1  0.26600000  0.21500000  0.00480000  1
  C  C371  1  0.39350000  0.24230000  0.91670000  1
  C  C372  1  0.38260000  0.11850000  0.98460000  1
  C  C373  1  0.46490000  0.51400000  0.03270000  1
  C  C374  1  0.39100000  0.29940000  0.01830000  1
  C  C375  1  0.15630000  0.10660000  0.52630000  1
  C  C376  1  0.19890000  0.14600000  0.52830000  1
  C  C377  1  0.15870000  0.17470000  0.55090000  1
  C  C378  1  0.19350000  0.21220000  0.55130000  1
  C  C379  1  0.26840000  0.22100000  0.52930000  1
  C  C380  1  0.30860000  0.19240000  0.50670000  1
  C  C381  1  0.27380000  0.15490000  0.50620000  1
  C  C382  1  0.30100000  0.26260000  0.52520000  1
  C  C383  1  0.36050000  0.27900000  0.55150000  1
  C  C384  1  0.38510000  0.31780000  0.54780000  1
  C  C385  1  0.35010000  0.34020000  0.51780000  1
  C  C386  1  0.29060000  0.32380000  0.49150000  1
  C  C387  1  0.26600000  0.28500000  0.49520000  1
  C  C388  1  0.39350000  0.25770000  0.58330000  1
  C  C389  1  0.38260000  0.38150000  0.51540000  1
  C  C390  1  0.46490000  0.98600000  0.46730000  1
  C  C391  1  0.39100000  0.20060000  0.48170000  1
  C  C392  1  0.33760000  0.46470000  0.03530000  1
  C  C393  1  0.42500000  0.47970000  0.02030000  1
  C  C394  1  0.33760000  0.03530000  0.46470000  1
  C  C395  1  0.42500000  0.02030000  0.47970000  1
  C  C396  1  0.83760000  0.46470000  0.46470000  1
  C  C397  1  0.92500000  0.47970000  0.47970000  1
  C  C398  1  0.83760000  0.03530000  0.03530000  1
  C  C399  1  0.92500000  0.02030000  0.02030000  1
  C  C400  1  0.16240000  0.53530000  0.53530000  1
  C  C401  1  0.07500000  0.52030000  0.52030000  1
  C  C402  1  0.16240000  0.96470000  0.96470000  1
  C  C403  1  0.07500000  0.97970000  0.97970000  1
  C  C404  1  0.66240000  0.53530000  0.96470000  1
  C  C405  1  0.57500000  0.52030000  0.97970000  1
  C  C406  1  0.66240000  0.96470000  0.53530000  1
  C  C407  1  0.57500000  0.97970000  0.52030000  1
  O  O408  1  0.18550000  0.49770000  0.08530000  1
  O  O409  1  0.10270000  0.55030000  0.09790000  1
  O  O410  1  0.36040000  0.48420000  0.40020000  1
  O  O411  1  0.41940000  0.54260000  0.39510000  1
  O  O412  1  0.11750000  0.53020000  0.02010000  1
  O  O413  1  0.01680000  0.43930000  0.01150000  1
  O  O414  1  0.18550000  0.00230000  0.41470000  1
  O  O415  1  0.10270000  0.94970000  0.40210000  1
  O  O416  1  0.36040000  0.01580000  0.09980000  1
  O  O417  1  0.41940000  0.95740000  0.10490000  1
  O  O418  1  0.11750000  0.96980000  0.47990000  1
  O  O419  1  0.01680000  0.06070000  0.48850000  1
  O  O420  1  0.68550000  0.41470000  0.49770000  1
  O  O421  1  0.60270000  0.40210000  0.55030000  1
  O  O422  1  0.86040000  0.09980000  0.48420000  1
  O  O423  1  0.91940000  0.10490000  0.54260000  1
  O  O424  1  0.61750000  0.47990000  0.53020000  1
  O  O425  1  0.51680000  0.48850000  0.43930000  1
  O  O426  1  0.68550000  0.08530000  0.00230000  1
  O  O427  1  0.60270000  0.09790000  0.94970000  1
  O  O428  1  0.86040000  0.40020000  0.01580000  1
  O  O429  1  0.91940000  0.39510000  0.95740000  1
  O  O430  1  0.61750000  0.02010000  0.96980000  1
  O  O431  1  0.51680000  0.01150000  0.06070000  1
  O  O432  1  0.31450000  0.50230000  0.58530000  1
  O  O433  1  0.39730000  0.44970000  0.59790000  1
  O  O434  1  0.13960000  0.51580000  0.90020000  1
  O  O435  1  0.08060000  0.45740000  0.89510000  1
  O  O436  1  0.38250000  0.46980000  0.52010000  1
  O  O437  1  0.48320000  0.56070000  0.51150000  1
  O  O438  1  0.31450000  0.99770000  0.91470000  1
  O  O439  1  0.39730000  0.05030000  0.90210000  1
  O  O440  1  0.13960000  0.98420000  0.59980000  1
  O  O441  1  0.08060000  0.04260000  0.60490000  1
  O  O442  1  0.38250000  0.03020000  0.97990000  1
  O  O443  1  0.48320000  0.93930000  0.98850000  1
  O  O444  1  0.81450000  0.58530000  0.99770000  1
  O  O445  1  0.89730000  0.59790000  0.05030000  1
  O  O446  1  0.63960000  0.90020000  0.98420000  1
  O  O447  1  0.58060000  0.89510000  0.04260000  1
  O  O448  1  0.88250000  0.52010000  0.03020000  1
  O  O449  1  0.98320000  0.51150000  0.93930000  1
  O  O450  1  0.81450000  0.91470000  0.50230000  1
  O  O451  1  0.89730000  0.90210000  0.44970000  1
  O  O452  1  0.63960000  0.59980000  0.51580000  1
  O  O453  1  0.58060000  0.60490000  0.45740000  1
  O  O454  1  0.88250000  0.97990000  0.46980000  1
  O  O455  1  0.98320000  0.98850000  0.56070000  1
  O  O456  1  0.81450000  0.50230000  0.91470000  1
  O  O457  1  0.89730000  0.44970000  0.90210000  1
  O  O458  1  0.63960000  0.51580000  0.59980000  1
  O  O459  1  0.58060000  0.45740000  0.60490000  1
  O  O460  1  0.88250000  0.46980000  0.97990000  1
  O  O461  1  0.98320000  0.56070000  0.98850000  1
  O  O462  1  0.81450000  0.99770000  0.58530000  1
  O  O463  1  0.89730000  0.05030000  0.59790000  1
  O  O464  1  0.63960000  0.98420000  0.90020000  1
  O  O465  1  0.58060000  0.04260000  0.89510000  1
  O  O466  1  0.88250000  0.03020000  0.52010000  1
  O  O467  1  0.98320000  0.93930000  0.51150000  1
  O  O468  1  0.31450000  0.58530000  0.50230000  1
  O  O469  1  0.39730000  0.59790000  0.44970000  1
  O  O470  1  0.13960000  0.90020000  0.51580000  1
  O  O471  1  0.08060000  0.89510000  0.45740000  1
  O  O472  1  0.38250000  0.52010000  0.46980000  1
  O  O473  1  0.48320000  0.51150000  0.56070000  1
  O  O474  1  0.31450000  0.91470000  0.99770000  1
  O  O475  1  0.39730000  0.90210000  0.05030000  1
  O  O476  1  0.13960000  0.59980000  0.98420000  1
  O  O477  1  0.08060000  0.60490000  0.04260000  1
  O  O478  1  0.38250000  0.97990000  0.03020000  1
  O  O479  1  0.48320000  0.98850000  0.93930000  1
  O  O480  1  0.68550000  0.49770000  0.41470000  1
  O  O481  1  0.60270000  0.55030000  0.40210000  1
  O  O482  1  0.86040000  0.48420000  0.09980000  1
  O  O483  1  0.91940000  0.54260000  0.10490000  1
  O  O484  1  0.61750000  0.53020000  0.47990000  1
  O  O485  1  0.51680000  0.43930000  0.48850000  1
  O  O486  1  0.68550000  0.00230000  0.08530000  1
  O  O487  1  0.60270000  0.94970000  0.09790000  1
  O  O488  1  0.86040000  0.01580000  0.40020000  1
  O  O489  1  0.91940000  0.95740000  0.39510000  1
  O  O490  1  0.61750000  0.96980000  0.02010000  1
  O  O491  1  0.51680000  0.06070000  0.01150000  1
  O  O492  1  0.18550000  0.41470000  0.00230000  1
  O  O493  1  0.10270000  0.40210000  0.94970000  1
  O  O494  1  0.36040000  0.09980000  0.01580000  1
  O  O495  1  0.41940000  0.10490000  0.95740000  1
  O  O496  1  0.11750000  0.47990000  0.96980000  1
  O  O497  1  0.01680000  0.48850000  0.06070000  1
  O  O498  1  0.18550000  0.08530000  0.49770000  1
  O  O499  1  0.10270000  0.09790000  0.55030000  1
  O  O500  1  0.36040000  0.40020000  0.48420000  1
  O  O501  1  0.41940000  0.39510000  0.54260000  1
  O  O502  1  0.11750000  0.02010000  0.53020000  1
  O  O503  1  0.01680000  0.01150000  0.43930000  1
  O  O504  1  0.27190000  0.47670000  0.02330000  1
  O  O505  1  0.35500000  0.43810000  0.06190000  1
  O  O506  1  0.27190000  0.02330000  0.47670000  1
  O  O507  1  0.35500000  0.06190000  0.43810000  1
  O  O508  1  0.77190000  0.47670000  0.47670000  1
  O  O509  1  0.85500000  0.43810000  0.43810000  1
  O  O510  1  0.77190000  0.02330000  0.02330000  1
  O  O511  1  0.85500000  0.06190000  0.06190000  1
  O  O512  1  0.22810000  0.52330000  0.52330000  1
  O  O513  1  0.14500000  0.56190000  0.56190000  1
  O  O514  1  0.22810000  0.97670000  0.97670000  1
  O  O515  1  0.14500000  0.93810000  0.93810000  1
  O  O516  1  0.72810000  0.52330000  0.97670000  1
  O  O517  1  0.64500000  0.56190000  0.93810000  1
  O  O518  1  0.72810000  0.97670000  0.52330000  1
  O  O519  1  0.64500000  0.93810000  0.56190000  1
  F  F520  1  0.45940000  0.60480000  0.27360000  1
  F  F521  1  0.42930000  0.57740000  0.22220000  1
  F  F522  1  0.33530000  0.61200000  0.24800000  1
  F  F523  1  0.43080000  0.43410000  0.96990000  1
  F  F524  1  0.45680000  0.50050000  0.21890000  1
  F  F525  1  0.42910000  0.46770000  0.16750000  1
  F  F526  1  0.37240000  0.44980000  0.22180000  1
  F  F527  1  0.45940000  0.89520000  0.22640000  1
  F  F528  1  0.42930000  0.92260000  0.27780000  1
  F  F529  1  0.33530000  0.88800000  0.25200000  1
  F  F530  1  0.43080000  0.06590000  0.53010000  1
  F  F531  1  0.45680000  0.99950000  0.28110000  1
  F  F532  1  0.42910000  0.03230000  0.33250000  1
  F  F533  1  0.37240000  0.05020000  0.27820000  1
  F  F534  1  0.95940000  0.22640000  0.60480000  1
  F  F535  1  0.92930000  0.27780000  0.57740000  1
  F  F536  1  0.83530000  0.25200000  0.61200000  1
  F  F537  1  0.93080000  0.53010000  0.43410000  1
  F  F538  1  0.95680000  0.28110000  0.50050000  1
  F  F539  1  0.92910000  0.33250000  0.46770000  1
  F  F540  1  0.87240000  0.27820000  0.44980000  1
  F  F541  1  0.95940000  0.27360000  0.89520000  1
  F  F542  1  0.92930000  0.22220000  0.92260000  1
  F  F543  1  0.83530000  0.24800000  0.88800000  1
  F  F544  1  0.93080000  0.96990000  0.06590000  1
  F  F545  1  0.95680000  0.21890000  0.99950000  1
  F  F546  1  0.92910000  0.16750000  0.03230000  1
  F  F547  1  0.87240000  0.22180000  0.05020000  1
  F  F548  1  0.04060000  0.39520000  0.77360000  1
  F  F549  1  0.07070000  0.42260000  0.72220000  1
  F  F550  1  0.16470000  0.38800000  0.74800000  1
  F  F551  1  0.06920000  0.56590000  0.46990000  1
  F  F552  1  0.04320000  0.49950000  0.71890000  1
  F  F553  1  0.07090000  0.53230000  0.66750000  1
  F  F554  1  0.12760000  0.55020000  0.72180000  1
  F  F555  1  0.04060000  0.10480000  0.72640000  1
  F  F556  1  0.07070000  0.07740000  0.77780000  1
  F  F557  1  0.16470000  0.11200000  0.75200000  1
  F  F558  1  0.06920000  0.93410000  0.03010000  1
  F  F559  1  0.04320000  0.00050000  0.78110000  1
  F  F560  1  0.07090000  0.96770000  0.83250000  1
  F  F561  1  0.12760000  0.94980000  0.77820000  1
  F  F562  1  0.54060000  0.77360000  0.10480000  1
  F  F563  1  0.57070000  0.72220000  0.07740000  1
  F  F564  1  0.66470000  0.74800000  0.11200000  1
  F  F565  1  0.56920000  0.46990000  0.93410000  1
  F  F566  1  0.54320000  0.71890000  0.00050000  1
  F  F567  1  0.57090000  0.66750000  0.96770000  1
  F  F568  1  0.62760000  0.72180000  0.94980000  1
  F  F569  1  0.54060000  0.72640000  0.39520000  1
  F  F570  1  0.57070000  0.77780000  0.42260000  1
  F  F571  1  0.66470000  0.75200000  0.38800000  1
  F  F572  1  0.56920000  0.03010000  0.56590000  1
  F  F573  1  0.54320000  0.78110000  0.49950000  1
  F  F574  1  0.57090000  0.83250000  0.53230000  1
  F  F575  1  0.62760000  0.77820000  0.55020000  1
  F  F576  1  0.54060000  0.39520000  0.72640000  1
  F  F577  1  0.57070000  0.42260000  0.77780000  1
  F  F578  1  0.66470000  0.38800000  0.75200000  1
  F  F579  1  0.56920000  0.56590000  0.03010000  1
  F  F580  1  0.54320000  0.49950000  0.78110000  1
  F  F581  1  0.57090000  0.53230000  0.83250000  1
  F  F582  1  0.62760000  0.55020000  0.77820000  1
  F  F583  1  0.54060000  0.10480000  0.77360000  1
  F  F584  1  0.57070000  0.07740000  0.72220000  1
  F  F585  1  0.66470000  0.11200000  0.74800000  1
  F  F586  1  0.56920000  0.93410000  0.46990000  1
  F  F587  1  0.54320000  0.00050000  0.71890000  1
  F  F588  1  0.57090000  0.96770000  0.66750000  1
  F  F589  1  0.62760000  0.94980000  0.72180000  1
  F  F590  1  0.04060000  0.77360000  0.39520000  1
  F  F591  1  0.07070000  0.72220000  0.42260000  1
  F  F592  1  0.16470000  0.74800000  0.38800000  1
  F  F593  1  0.06920000  0.46990000  0.56590000  1
  F  F594  1  0.04320000  0.71890000  0.49950000  1
  F  F595  1  0.07090000  0.66750000  0.53230000  1
  F  F596  1  0.12760000  0.72180000  0.55020000  1
  F  F597  1  0.04060000  0.72640000  0.10480000  1
  F  F598  1  0.07070000  0.77780000  0.07740000  1
  F  F599  1  0.16470000  0.75200000  0.11200000  1
  F  F600  1  0.06920000  0.03010000  0.93410000  1
  F  F601  1  0.04320000  0.78110000  0.00050000  1
  F  F602  1  0.07090000  0.83250000  0.96770000  1
  F  F603  1  0.12760000  0.77820000  0.94980000  1
  F  F604  1  0.95940000  0.60480000  0.22640000  1
  F  F605  1  0.92930000  0.57740000  0.27780000  1
  F  F606  1  0.83530000  0.61200000  0.25200000  1
  F  F607  1  0.93080000  0.43410000  0.53010000  1
  F  F608  1  0.95680000  0.50050000  0.28110000  1
  F  F609  1  0.92910000  0.46770000  0.33250000  1
  F  F610  1  0.87240000  0.44980000  0.27820000  1
  F  F611  1  0.95940000  0.89520000  0.27360000  1
  F  F612  1  0.92930000  0.92260000  0.22220000  1
  F  F613  1  0.83530000  0.88800000  0.24800000  1
  F  F614  1  0.93080000  0.06590000  0.96990000  1
  F  F615  1  0.95680000  0.99950000  0.21890000  1
  F  F616  1  0.92910000  0.03230000  0.16750000  1
  F  F617  1  0.87240000  0.05020000  0.22180000  1
  F  F618  1  0.45940000  0.22640000  0.89520000  1
  F  F619  1  0.42930000  0.27780000  0.92260000  1
  F  F620  1  0.33530000  0.25200000  0.88800000  1
  F  F621  1  0.43080000  0.53010000  0.06590000  1
  F  F622  1  0.45680000  0.28110000  0.99950000  1
  F  F623  1  0.42910000  0.33250000  0.03230000  1
  F  F624  1  0.37240000  0.27820000  0.05020000  1
  F  F625  1  0.45940000  0.27360000  0.60480000  1
  F  F626  1  0.42930000  0.22220000  0.57740000  1
  F  F627  1  0.33530000  0.24800000  0.61200000  1
  F  F628  1  0.43080000  0.96990000  0.43410000  1
  F  F629  1  0.45680000  0.21890000  0.50050000  1
  F  F630  1  0.42910000  0.16750000  0.46770000  1
  F  F631  1  0.37240000  0.22180000  0.44980000  1
