# generated using pymatgen
data_Zr3H15C38(O7F6)2
_symmetry_space_group_name_H-M   'P 1'
_cell_length_a   16.83990000
_cell_length_b   23.78510000
_cell_length_c   23.78510000
_cell_angle_alpha   90.00000000
_cell_angle_beta   90.00000000
_cell_angle_gamma   90.00000000
_symmetry_Int_Tables_number   1
_chemical_formula_structural   Zr3H15C38(O7F6)2
_chemical_formula_sum   'Zr12 H60 C152 O56 F48'
_cell_volume   9526.85316395
_cell_formula_units_Z   4
loop_
 _symmetry_equiv_pos_site_id
 _symmetry_equiv_pos_as_xyz
  1  'x, y, z'
loop_
 _atom_site_type_symbol
 _atom_site_label
 _atom_site_symmetry_multiplicity
 _atom_site_fract_x
 _atom_site_fract_y
 _atom_site_fract_z
 _atom_site_occupancy
  Zr  Zr0  1  0.00000000  0.50000000  0.10411000  1
  Zr  Zr1  1  0.00000000  0.50000000  0.89589000  1
  Zr  Zr2  1  0.50000000  0.89589000  0.50000000  1
  Zr  Zr3  1  0.50000000  0.10411000  0.50000000  1
  Zr  Zr4  1  0.10496000  0.42687000  0.00000000  1
  Zr  Zr5  1  0.10496000  0.57313000  0.00000000  1
  Zr  Zr6  1  0.60496000  1.00000000  0.42687000  1
  Zr  Zr7  1  0.60496000  1.00000000  0.57313000  1
  Zr  Zr8  1  0.89504000  0.57313000  0.00000000  1
  Zr  Zr9  1  0.89504000  0.42687000  0.00000000  1
  Zr  Zr10  1  0.39504000  1.00000000  0.42687000  1
  Zr  Zr11  1  0.39504000  1.00000000  0.57313000  1
  H  H12  1  0.24880000  0.33660000  0.12540000  1
  H  H13  1  0.09740000  0.39520000  0.24270000  1
  H  H14  1  0.24880000  0.66340000  0.87460000  1
  H  H15  1  0.09740000  0.60480000  0.75730000  1
  H  H16  1  0.74880000  0.87460000  0.33660000  1
  H  H17  1  0.59740000  0.75730000  0.39520000  1
  H  H18  1  0.74880000  0.12540000  0.66340000  1
  H  H19  1  0.59740000  0.24270000  0.60480000  1
  H  H20  1  0.75120000  0.66340000  0.12540000  1
  H  H21  1  0.90260000  0.60480000  0.24270000  1
  H  H22  1  0.75120000  0.33660000  0.87460000  1
  H  H23  1  0.90260000  0.39520000  0.75730000  1
  H  H24  1  0.25120000  0.12540000  0.33660000  1
  H  H25  1  0.40260000  0.24270000  0.39520000  1
  H  H26  1  0.25120000  0.87460000  0.66340000  1
  H  H27  1  0.40260000  0.75730000  0.60480000  1
  H  H28  1  0.75120000  0.66340000  0.87460000  1
  H  H29  1  0.90260000  0.60480000  0.75730000  1
  H  H30  1  0.75120000  0.33660000  0.12540000  1
  H  H31  1  0.90260000  0.39520000  0.24270000  1
  H  H32  1  0.25120000  0.12540000  0.66340000  1
  H  H33  1  0.40260000  0.24270000  0.60480000  1
  H  H34  1  0.25120000  0.87460000  0.33660000  1
  H  H35  1  0.40260000  0.75730000  0.39520000  1
  H  H36  1  0.24880000  0.33660000  0.87460000  1
  H  H37  1  0.09740000  0.39520000  0.75730000  1
  H  H38  1  0.24880000  0.66340000  0.12540000  1
  H  H39  1  0.09740000  0.60480000  0.24270000  1
  H  H40  1  0.74880000  0.87460000  0.66340000  1
  H  H41  1  0.59740000  0.75730000  0.60480000  1
  H  H42  1  0.74880000  0.12540000  0.33660000  1
  H  H43  1  0.59740000  0.24270000  0.39520000  1
  H  H44  1  0.33740000  0.58650000  0.00000000  1
  H  H45  1  0.47070000  0.60940000  0.00000000  1
  H  H46  1  0.39370000  0.41930000  0.00000000  1
  H  H47  1  0.83740000  1.00000000  0.58650000  1
  H  H48  1  0.97070000  1.00000000  0.60940000  1
  H  H49  1  0.89370000  1.00000000  0.41930000  1
  H  H50  1  0.66260000  0.41350000  0.00000000  1
  H  H51  1  0.52930000  0.39060000  0.00000000  1
  H  H52  1  0.60630000  0.58070000  0.00000000  1
  H  H53  1  0.16260000  0.00000000  0.41350000  1
  H  H54  1  0.02930000  0.00000000  0.39060000  1
  H  H55  1  0.10630000  0.00000000  0.58070000  1
  H  H56  1  0.31801000  0.27468000  0.19153000  1
  H  H57  1  0.31801000  0.72532000  0.80847000  1
  H  H58  1  0.81801000  0.80847000  0.27468000  1
  H  H59  1  0.64515000  0.31399000  0.66888000  1
  H  H60  1  0.68199000  0.72532000  0.19153000  1
  H  H61  1  0.68199000  0.27468000  0.80847000  1
  H  H62  1  0.35485000  0.31399000  0.33112000  1
  H  H63  1  0.35485000  0.68601000  0.66888000  1
  H  H64  1  0.85485000  0.66888000  0.68601000  1
  H  H65  1  0.85485000  0.33112000  0.31399000  1
  H  H66  1  0.35485000  0.31399000  0.66888000  1
  H  H67  1  0.35485000  0.68601000  0.33112000  1
  H  H68  1  0.31801000  0.27468000  0.80847000  1
  H  H69  1  0.14515000  0.66888000  0.31399000  1
  H  H70  1  0.64515000  0.68601000  0.66888000  1
  H  H71  1  0.81801000  0.19153000  0.27468000  1
  C  C72  1  0.12950000  0.40700000  0.13420000  1
  C  C73  1  0.16660000  0.37050000  0.17730000  1
  C  C74  1  0.22910000  0.33630000  0.16290000  1
  C  C75  1  0.26370000  0.30090000  0.20300000  1
  C  C76  1  0.23310000  0.29740000  0.25580000  1
  C  C77  1  0.17130000  0.33240000  0.26980000  1
  C  C78  1  0.13850000  0.37020000  0.23150000  1
  C  C79  1  0.12600000  0.33060000  0.32460000  1
  C  C80  1  0.12950000  0.59300000  0.86580000  1
  C  C81  1  0.16660000  0.62950000  0.82270000  1
  C  C82  1  0.22910000  0.66370000  0.83710000  1
  C  C83  1  0.26370000  0.69910000  0.79700000  1
  C  C84  1  0.23310000  0.70260000  0.74420000  1
  C  C85  1  0.17130000  0.66760000  0.73020000  1
  C  C86  1  0.13850000  0.62980000  0.76850000  1
  C  C87  1  0.12600000  0.66940000  0.67540000  1
  C  C88  1  0.62950000  0.86580000  0.40700000  1
  C  C89  1  0.66666667  0.82270000  0.37050000  1
  C  C90  1  0.72910000  0.83710000  0.33630000  1
  C  C91  1  0.76370000  0.79700000  0.30090000  1
  C  C92  1  0.73310000  0.74420000  0.29740000  1
  C  C93  1  0.67130000  0.73020000  0.33240000  1
  C  C94  1  0.63850000  0.76850000  0.37020000  1
  C  C95  1  0.62600000  0.67540000  0.33060000  1
  C  C96  1  0.62950000  0.13420000  0.59300000  1
  C  C97  1  0.66666667  0.17730000  0.62950000  1
  C  C98  1  0.72910000  0.16290000  0.66370000  1
  C  C99  1  0.76370000  0.20300000  0.69910000  1
  C  C100  1  0.73310000  0.25580000  0.70260000  1
  C  C101  1  0.67130000  0.26980000  0.66760000  1
  C  C102  1  0.63850000  0.23150000  0.62980000  1
  C  C103  1  0.83230000  0.17960000  0.73280000  1
  C  C104  1  0.87050000  0.59300000  0.13420000  1
  C  C105  1  0.83340000  0.62950000  0.17730000  1
  C  C106  1  0.77090000  0.66370000  0.16290000  1
  C  C107  1  0.73630000  0.69910000  0.20300000  1
  C  C108  1  0.76690000  0.70260000  0.25580000  1
  C  C109  1  0.82870000  0.66760000  0.26980000  1
  C  C110  1  0.86150000  0.62980000  0.23150000  1
  C  C111  1  0.87400000  0.66940000  0.32460000  1
  C  C112  1  0.87050000  0.40700000  0.86580000  1
  C  C113  1  0.83340000  0.37050000  0.82270000  1
  C  C114  1  0.77090000  0.33630000  0.83710000  1
  C  C115  1  0.73630000  0.30090000  0.79700000  1
  C  C116  1  0.76690000  0.29740000  0.74420000  1
  C  C117  1  0.82870000  0.33240000  0.73020000  1
  C  C118  1  0.86150000  0.37020000  0.76850000  1
  C  C119  1  0.87400000  0.33060000  0.67540000  1
  C  C120  1  0.37050000  0.13420000  0.40700000  1
  C  C121  1  0.33340000  0.17730000  0.37050000  1
  C  C122  1  0.27090000  0.16290000  0.33630000  1
  C  C123  1  0.23630000  0.20300000  0.30090000  1
  C  C124  1  0.26690000  0.25580000  0.29740000  1
  C  C125  1  0.32870000  0.26980000  0.33240000  1
  C  C126  1  0.36150000  0.23150000  0.37020000  1
  C  C127  1  0.16770000  0.17960000  0.26720000  1
  C  C128  1  0.37050000  0.86580000  0.59300000  1
  C  C129  1  0.33340000  0.82270000  0.62950000  1
  C  C130  1  0.27090000  0.83710000  0.66370000  1
  C  C131  1  0.23630000  0.79700000  0.69910000  1
  C  C132  1  0.26690000  0.74420000  0.70260000  1
  C  C133  1  0.32870000  0.73020000  0.66760000  1
  C  C134  1  0.36150000  0.76850000  0.62980000  1
  C  C135  1  0.16770000  0.82040000  0.73280000  1
  C  C136  1  0.87050000  0.59300000  0.86580000  1
  C  C137  1  0.83340000  0.62950000  0.82270000  1
  C  C138  1  0.77090000  0.66370000  0.83710000  1
  C  C139  1  0.73630000  0.69910000  0.79700000  1
  C  C140  1  0.76690000  0.70260000  0.74420000  1
  C  C141  1  0.82870000  0.66760000  0.73020000  1
  C  C142  1  0.86150000  0.62980000  0.76850000  1
  C  C143  1  0.66770000  0.73280000  0.82040000  1
  C  C144  1  0.87050000  0.40700000  0.13420000  1
  C  C145  1  0.83340000  0.37050000  0.17730000  1
  C  C146  1  0.77090000  0.33630000  0.16290000  1
  C  C147  1  0.73630000  0.30090000  0.20300000  1
  C  C148  1  0.76690000  0.29740000  0.25580000  1
  C  C149  1  0.82870000  0.33240000  0.26980000  1
  C  C150  1  0.86150000  0.37020000  0.23150000  1
  C  C151  1  0.66770000  0.26720000  0.17960000  1
  C  C152  1  0.37050000  0.13420000  0.59300000  1
  C  C153  1  0.33340000  0.17730000  0.62950000  1
  C  C154  1  0.27090000  0.16290000  0.66370000  1
  C  C155  1  0.23630000  0.20300000  0.69910000  1
  C  C156  1  0.26690000  0.25580000  0.70260000  1
  C  C157  1  0.32870000  0.26980000  0.66760000  1
  C  C158  1  0.36150000  0.23150000  0.62980000  1
  C  C159  1  0.16770000  0.17960000  0.73280000  1
  C  C160  1  0.37050000  0.86580000  0.40700000  1
  C  C161  1  0.33340000  0.82270000  0.37050000  1
  C  C162  1  0.27090000  0.83710000  0.33630000  1
  C  C163  1  0.23630000  0.79700000  0.30090000  1
  C  C164  1  0.26690000  0.74420000  0.29740000  1
  C  C165  1  0.32870000  0.73020000  0.33240000  1
  C  C166  1  0.36150000  0.76850000  0.37020000  1
  C  C167  1  0.16770000  0.82040000  0.26720000  1
  C  C168  1  0.12950000  0.40700000  0.86580000  1
  C  C169  1  0.16660000  0.37050000  0.82270000  1
  C  C170  1  0.22910000  0.33630000  0.83710000  1
  C  C171  1  0.26370000  0.30090000  0.79700000  1
  C  C172  1  0.23310000  0.29740000  0.74420000  1
  C  C173  1  0.17130000  0.33240000  0.73020000  1
  C  C174  1  0.13850000  0.37020000  0.76850000  1
  C  C175  1  0.12600000  0.33060000  0.67540000  1
  C  C176  1  0.12950000  0.59300000  0.13420000  1
  C  C177  1  0.16660000  0.62950000  0.17730000  1
  C  C178  1  0.22910000  0.66370000  0.16290000  1
  C  C179  1  0.26370000  0.69910000  0.20300000  1
  C  C180  1  0.23310000  0.70260000  0.25580000  1
  C  C181  1  0.17130000  0.66760000  0.26980000  1
  C  C182  1  0.13850000  0.62980000  0.23150000  1
  C  C183  1  0.33230000  0.73280000  0.17960000  1
  C  C184  1  0.62950000  0.86580000  0.59300000  1
  C  C185  1  0.66666667  0.82270000  0.62950000  1
  C  C186  1  0.72910000  0.83710000  0.66370000  1
  C  C187  1  0.76370000  0.79700000  0.69910000  1
  C  C188  1  0.73310000  0.74420000  0.70260000  1
  C  C189  1  0.67130000  0.73020000  0.66760000  1
  C  C190  1  0.63850000  0.76850000  0.62980000  1
  C  C191  1  0.83230000  0.82040000  0.73280000  1
  C  C192  1  0.62950000  0.13420000  0.40700000  1
  C  C193  1  0.66666667  0.17730000  0.37050000  1
  C  C194  1  0.72910000  0.16290000  0.33630000  1
  C  C195  1  0.76370000  0.20300000  0.30090000  1
  C  C196  1  0.73310000  0.25580000  0.29740000  1
  C  C197  1  0.67130000  0.26980000  0.33240000  1
  C  C198  1  0.63850000  0.23150000  0.37020000  1
  C  C199  1  0.62600000  0.32460000  0.33060000  1
  C  C200  1  0.37540000  0.55700000  0.00000000  1
  C  C201  1  0.45670000  0.57070000  0.00000000  1
  C  C202  1  0.51190000  0.52788000  0.00000000  1
  C  C203  1  0.40720000  0.45840000  0.00000000  1
  C  C204  1  0.87540000  0.00000000  0.55700000  1
  C  C205  1  0.95670000  1.00000000  0.57070000  1
  C  C206  1  0.01190000  0.00000000  0.52788000  1
  C  C207  1  0.90720000  0.00000000  0.45840000  1
  C  C208  1  0.62460000  0.44300000  0.00000000  1
  C  C209  1  0.54330000  0.42930000  0.00000000  1
  C  C210  1  0.48810000  0.47212000  0.00000000  1
  C  C211  1  0.59280000  0.54160000  0.00000000  1
  C  C212  1  0.12460000  1.00000000  0.44300000  1
  C  C213  1  0.04330000  1.00000000  0.42930000  1
  C  C214  1  0.98810000  1.00000000  0.47212000  1
  C  C215  1  0.09280000  0.00000000  0.54160000  1
  C  C216  1  0.26560000  0.50000000  0.00000000  1
  C  C217  1  0.35150000  0.50000000  0.00000000  1
  C  C218  1  0.76560000  0.00000000  0.50000000  1
  C  C219  1  0.85150000  0.00000000  0.50000000  1
  C  C220  1  0.73440000  0.50000000  0.00000000  1
  C  C221  1  0.64850000  0.50000000  0.00000000  1
  C  C222  1  0.23440000  0.00000000  0.50000000  1
  C  C223  1  0.14850000  0.00000000  0.50000000  1
  O  O224  1  0.07970000  0.44234000  0.15082000  1
  O  O225  1  0.15060000  0.39822000  0.08360000  1
  O  O226  1  0.07970000  0.55766000  0.84918000  1
  O  O227  1  0.15060000  0.60178000  0.91640000  1
  O  O228  1  0.57970000  0.84918000  0.44234000  1
  O  O229  1  0.65060000  0.91640000  0.39822000  1
  O  O230  1  0.57970000  0.15082000  0.55766000  1
  O  O231  1  0.65060000  0.08360000  0.60178000  1
  O  O232  1  0.92030000  0.55766000  0.15082000  1
  O  O233  1  0.84940000  0.60178000  0.08360000  1
  O  O234  1  0.92030000  0.44234000  0.84918000  1
  O  O235  1  0.84940000  0.39822000  0.91640000  1
  O  O236  1  0.42030000  0.15082000  0.44234000  1
  O  O237  1  0.34940000  0.08360000  0.39822000  1
  O  O238  1  0.42030000  0.84918000  0.55766000  1
  O  O239  1  0.34940000  0.91640000  0.60178000  1
  O  O240  1  0.92030000  0.55766000  0.84918000  1
  O  O241  1  0.84940000  0.60178000  0.91640000  1
  O  O242  1  0.92030000  0.44234000  0.15082000  1
  O  O243  1  0.84940000  0.39822000  0.08360000  1
  O  O244  1  0.42030000  0.15082000  0.55766000  1
  O  O245  1  0.34940000  0.08360000  0.60178000  1
  O  O246  1  0.42030000  0.84918000  0.44234000  1
  O  O247  1  0.34940000  0.91640000  0.39822000  1
  O  O248  1  0.07970000  0.44234000  0.84918000  1
  O  O249  1  0.15060000  0.39822000  0.91640000  1
  O  O250  1  0.07970000  0.55766000  0.15082000  1
  O  O251  1  0.15060000  0.60178000  0.08360000  1
  O  O252  1  0.57970000  0.84918000  0.55766000  1
  O  O253  1  0.65060000  0.91640000  0.60178000  1
  O  O254  1  0.57970000  0.15082000  0.44234000  1
  O  O255  1  0.65060000  0.08360000  0.39822000  1
  O  O256  1  0.23090000  0.45300000  0.00000000  1
  O  O257  1  0.23090000  0.54700000  0.00000000  1
  O  O258  1  0.73090000  0.00000000  0.45300000  1
  O  O259  1  0.73090000  1.00000000  0.54700000  1
  O  O260  1  0.76910000  0.54700000  0.00000000  1
  O  O261  1  0.76910000  0.45300000  0.00000000  1
  O  O262  1  0.26910000  0.00000000  0.45300000  1
  O  O263  1  0.26910000  1.00000000  0.54700000  1
  O  O264  1  0.00000000  0.42410000  0.05070000  1
  O  O265  1  0.00000000  0.57590000  0.94930000  1
  O  O266  1  0.50000000  0.94930000  0.42410000  1
  O  O267  1  0.50000000  0.05070000  0.57590000  1
  O  O268  1  0.00000000  0.57590000  0.05070000  1
  O  O269  1  0.00000000  0.42410000  0.94930000  1
  O  O270  1  0.50000000  0.05070000  0.42410000  1
  O  O271  1  0.50000000  0.94930000  0.57590000  1
  O  O272  1  0.09980000  0.50000000  0.05080000  1
  O  O273  1  0.09980000  0.50000000  0.94920000  1
  O  O274  1  0.59980000  0.94920000  0.50000000  1
  O  O275  1  0.59980000  0.05080000  0.50000000  1
  O  O276  1  0.90020000  0.50000000  0.05080000  1
  O  O277  1  0.90020000  0.50000000  0.94920000  1
  O  O278  1  0.40020000  0.05080000  0.50000000  1
  O  O279  1  0.40020000  0.94920000  0.50000000  1
  F  F280  1  0.17310000  0.34120000  0.37220000  1
  F  F281  1  0.06360000  0.36610000  0.33450000  1
  F  F282  1  0.09340000  0.28010000  0.34340000  1
  F  F283  1  0.17310000  0.65880000  0.62780000  1
  F  F284  1  0.06360000  0.63390000  0.66550000  1
  F  F285  1  0.09340000  0.71990000  0.65660000  1
  F  F286  1  0.67310000  0.62780000  0.34120000  1
  F  F287  1  0.56360000  0.66550000  0.36610000  1
  F  F288  1  0.59340000  0.65660000  0.28010000  1
  F  F289  1  0.86100000  0.12670000  0.72450000  1
  F  F290  1  0.82320000  0.17880000  0.79080000  1
  F  F291  1  0.90450000  0.20950000  0.72960000  1
  F  F292  1  0.82690000  0.65880000  0.37220000  1
  F  F293  1  0.93640000  0.63390000  0.33450000  1
  F  F294  1  0.90660000  0.71990000  0.34340000  1
  F  F295  1  0.82690000  0.34120000  0.62780000  1
  F  F296  1  0.93640000  0.36610000  0.66550000  1
  F  F297  1  0.90660000  0.28010000  0.65660000  1
  F  F298  1  0.13900000  0.12670000  0.27550000  1
  F  F299  1  0.17680000  0.17880000  0.20920000  1
  F  F300  1  0.09550000  0.20950000  0.27040000  1
  F  F301  1  0.13900000  0.87330000  0.72450000  1
  F  F302  1  0.17680000  0.82120000  0.79080000  1
  F  F303  1  0.09550000  0.79050000  0.72960000  1
  F  F304  1  0.63900000  0.72450000  0.87330000  1
  F  F305  1  0.67680000  0.79080000  0.82120000  1
  F  F306  1  0.59550000  0.72960000  0.79050000  1
  F  F307  1  0.63900000  0.27550000  0.12670000  1
  F  F308  1  0.67680000  0.20920000  0.17880000  1
  F  F309  1  0.59550000  0.27040000  0.20950000  1
  F  F310  1  0.13900000  0.12670000  0.72450000  1
  F  F311  1  0.17680000  0.17880000  0.79080000  1
  F  F312  1  0.09550000  0.20950000  0.72960000  1
  F  F313  1  0.13900000  0.87330000  0.27550000  1
  F  F314  1  0.17680000  0.82120000  0.20920000  1
  F  F315  1  0.09550000  0.79050000  0.27040000  1
  F  F316  1  0.17310000  0.34120000  0.62780000  1
  F  F317  1  0.06360000  0.36610000  0.66550000  1
  F  F318  1  0.09340000  0.28010000  0.65660000  1
  F  F319  1  0.36100000  0.72450000  0.12670000  1
  F  F320  1  0.32320000  0.79080000  0.17880000  1
  F  F321  1  0.40450000  0.72960000  0.20950000  1
  F  F322  1  0.86100000  0.87330000  0.72450000  1
  F  F323  1  0.82320000  0.82120000  0.79080000  1
  F  F324  1  0.90450000  0.79050000  0.72960000  1
  F  F325  1  0.67310000  0.37220000  0.34120000  1
  F  F326  1  0.56360000  0.33450000  0.36610000  1
  F  F327  1  0.59340000  0.34340000  0.28010000  1
