# generated using pymatgen
data_Zr12H89C184N8(O21F16)3
_symmetry_space_group_name_H-M   'P 1'
_cell_length_a   19.05900000
_cell_length_b   22.87270000
_cell_length_c   22.87270000
_cell_angle_alpha   90.00000000
_cell_angle_beta   90.00000000
_cell_angle_gamma   90.00000000
_symmetry_Int_Tables_number   1
_chemical_formula_structural   Zr12H89C184N8(O21F16)3
_chemical_formula_sum   'Zr12 H89 C184 N8 O63 F48'
_cell_volume   9970.91416442
_cell_formula_units_Z   1
loop_
 _symmetry_equiv_pos_site_id
 _symmetry_equiv_pos_as_xyz
  1  'x, y, z'
loop_
 _atom_site_type_symbol
 _atom_site_label
 _atom_site_symmetry_multiplicity
 _atom_site_fract_x
 _atom_site_fract_y
 _atom_site_fract_z
 _atom_site_occupancy
  Zr  Zr0  1  0.00000000  0.10741000  0.50000000  1
  Zr  Zr1  1  1.00000000  0.89259000  0.50000000  1
  Zr  Zr2  1  0.50000000  0.50000000  0.10741000  1
  Zr  Zr3  1  0.50000000  0.50000000  0.89259000  1
  Zr  Zr4  1  0.09233000  1.00000000  0.42335000  1
  Zr  Zr5  1  0.09233000  0.00000000  0.57665000  1
  Zr  Zr6  1  0.59233000  0.57665000  0.00000000  1
  Zr  Zr7  1  0.59233000  0.42335000  0.00000000  1
  Zr  Zr8  1  0.90767000  1.00000000  0.42335000  1
  Zr  Zr9  1  0.90767000  0.00000000  0.57665000  1
  Zr  Zr10  1  0.40767000  0.42335000  0.00000000  1
  Zr  Zr11  1  0.40767000  0.57665000  0.00000000  1
  H  H12  1  0.09162000  0.74225000  0.59816000  1
  H  H13  1  0.59162000  0.59816000  0.25775000  1
  H  H14  1  0.59162000  0.40184000  0.74225000  1
  H  H15  1  0.90838000  0.74225000  0.40184000  1
  H  H16  1  0.48256000  0.07260000  0.71063000  1
  H  H17  1  0.90838000  0.25775000  0.59816000  1
  H  H18  1  0.66795000  0.03128000  0.72452000  1
  H  H19  1  0.57121000  0.00824000  0.52034000  1
  H  H20  1  0.48578000  0.14551000  0.49956000  1
  H  H21  1  0.55352000  0.11920000  0.55601000  1
  H  H22  1  0.36289000  0.11636000  0.51112000  1
  H  H23  1  0.31529000  0.96475000  0.62100000  1
  H  H24  1  0.43748000  0.96974000  0.66278000  1
  H  H25  1  0.40838000  0.40184000  0.25775000  1
  H  H26  1  0.40838000  0.59816000  0.74225000  1
  H  H27  1  0.90838000  0.74225000  0.59816000  1
  H  H28  1  0.69754000  0.98297000  0.54114000  1
  H  H29  1  0.77548000  0.11718000  0.33678000  1
  H  H30  1  0.98210000  0.28957000  0.92797000  1
  H  H31  1  0.40838000  0.40184000  0.74225000  1
  H  H32  1  0.16795000  0.27548000  0.96872000  1
  H  H33  1  0.98409000  0.47548000  0.83802000  1
  H  H34  1  0.97844000  0.71822000  0.02033000  1
  H  H35  1  0.40838000  0.59816000  0.25775000  1
  H  H36  1  0.09162000  0.25775000  0.59816000  1
  H  H37  1  0.59162000  0.59816000  0.74225000  1
  H  H38  1  0.72452000  0.66322000  0.88282000  1
  H  H39  1  0.59162000  0.40184000  0.25775000  1
  H  H40  1  0.54003000  0.02282000  0.75852000  1
  H  H41  1  0.22452000  0.11718000  0.33678000  1
  H  H42  1  0.22452000  0.88282000  0.66322000  1
  H  H43  1  0.72452000  0.66322000  0.11718000  1
  H  H44  1  0.77548000  0.88282000  0.33678000  1
  H  H45  1  0.77548000  0.11718000  0.66322000  1
  H  H46  1  0.27548000  0.33678000  0.11718000  1
  H  H47  1  0.27548000  0.66322000  0.88282000  1
  H  H48  1  0.77548000  0.88282000  0.66322000  1
  H  H49  1  0.91363000  0.11178000  0.37160000  1
  H  H50  1  0.84832000  0.11190000  0.43106000  1
  H  H51  1  0.04049000  0.24129000  0.97662000  1
  H  H52  1  0.27548000  0.33678000  0.88282000  1
  H  H53  1  0.07121000  0.47966000  0.99176000  1
  H  H54  1  0.86289000  0.48888000  0.88364000  1
  H  H55  1  0.04415000  0.75092000  0.07508000  1
  H  H56  1  0.27548000  0.66322000  0.11718000  1
  H  H57  1  0.16795000  0.72452000  0.03128000  1
  H  H58  1  0.07121000  0.52034000  0.00824000  1
  H  H59  1  0.86289000  0.51112000  0.11636000  1
  H  H60  1  0.22452000  0.11718000  0.66322000  1
  H  H61  1  0.22452000  0.88282000  0.33678000  1
  H  H62  1  0.72452000  0.33678000  0.11718000  1
  H  H63  1  0.19754000  0.45886000  0.01703000  1
  H  H64  1  0.81529000  0.37900000  0.03525000  1
  H  H65  1  0.93748000  0.33722000  0.03026000  1
  H  H66  1  0.19754000  0.54114000  0.98297000  1
  H  H67  1  0.81529000  0.62100000  0.96475000  1
  H  H68  1  0.93748000  0.66278000  0.96974000  1
  H  H69  1  0.00610000  0.48891000  0.12107000  1
  H  H70  1  0.03320000  0.56666000  0.14365000  1
  H  H71  1  0.05521000  0.46895000  0.89727000  1
  H  H72  1  0.49657000  0.83560000  0.45298000  1
  H  H73  1  0.54273000  0.89969000  0.49144000  1
  H  H74  1  0.57121000  0.99176000  0.47966000  1
  H  H75  1  0.36301000  0.88360000  0.48889000  1
  H  H76  1  0.31529000  0.03525000  0.37900000  1
  H  H77  1  0.43748000  0.03026000  0.33722000  1
  H  H78  1  0.50581000  0.99382000  0.26086000  1
  H  H79  1  0.51678000  0.91076000  0.27000000  1
  H  H80  1  0.66795000  0.96872000  0.27548000  1
  H  H81  1  0.69754000  0.01703000  0.45886000  1
  H  H82  1  0.90838000  0.25775000  0.40184000  1
  H  H83  1  0.72452000  0.33678000  0.88282000  1
  H  H84  1  0.09162000  0.25775000  0.40184000  1
  H  H85  1  0.09162000  0.74225000  0.40184000  1
  H  H86  1  0.16208000  0.33238000  0.34492000  1
  H  H87  1  0.29588000  0.80914000  0.72096000  1
  H  H88  1  0.79588000  0.72096000  0.19086000  1
  H  H89  1  0.66208000  0.34492000  0.66762000  1
  H  H90  1  0.83792000  0.66762000  0.34492000  1
  H  H91  1  0.70412000  0.19086000  0.72096000  1
  H  H92  1  0.33792000  0.34492000  0.33238000  1
  H  H93  1  0.33792000  0.65508000  0.66762000  1
  H  H94  1  0.83792000  0.66762000  0.65508000  1
  H  H95  1  0.33792000  0.34492000  0.66762000  1
  H  H96  1  0.33792000  0.65508000  0.33238000  1
  H  H97  1  0.29588000  0.19086000  0.72096000  1
  H  H98  1  0.29588000  0.80914000  0.27904000  1
  H  H99  1  0.66208000  0.65508000  0.66762000  1
  H  H100  1  0.79588000  0.27904000  0.19086000  1
  C  C101  1  0.23330000  0.26610000  0.30850000  1
  C  C102  1  0.17670000  0.28410000  0.34270000  1
  C  C103  1  0.13810000  0.24310000  0.37410000  1
  C  C104  1  0.15520000  0.18490000  0.37220000  1
  C  C105  1  0.21100000  0.16570000  0.33840000  1
  C  C106  1  0.24990000  0.20670000  0.30670000  1
  C  C107  1  0.11440000  0.14070000  0.40480000  1
  C  C108  1  0.31030000  0.18570000  0.27050000  1
  C  C109  1  0.23330000  0.73390000  0.69150000  1
  C  C110  1  0.17670000  0.71590000  0.65730000  1
  C  C111  1  0.13810000  0.75690000  0.62590000  1
  C  C112  1  0.15520000  0.81510000  0.62780000  1
  C  C113  1  0.21100000  0.83430000  0.66160000  1
  C  C114  1  0.24990000  0.79330000  0.69330000  1
  C  C115  1  0.15700000  0.65280000  0.65410000  1
  C  C116  1  0.11440000  0.85930000  0.59520000  1
  C  C117  1  0.73330000  0.69150000  0.26610000  1
  C  C118  1  0.67670000  0.65730000  0.28410000  1
  C  C119  1  0.63810000  0.62590000  0.24310000  1
  C  C120  1  0.65520000  0.62780000  0.18490000  1
  C  C121  1  0.71100000  0.66160000  0.16570000  1
  C  C122  1  0.74990000  0.69330000  0.20670000  1
  C  C123  1  0.65700000  0.65410000  0.34720000  1
  C  C124  1  0.61440000  0.59520000  0.14070000  1
  C  C125  1  0.73330000  0.30850000  0.73390000  1
  C  C126  1  0.67670000  0.34270000  0.71590000  1
  C  C127  1  0.63810000  0.37410000  0.75690000  1
  C  C128  1  0.65520000  0.37220000  0.81510000  1
  C  C129  1  0.71100000  0.33840000  0.83430000  1
  C  C130  1  0.74990000  0.30670000  0.79330000  1
  C  C131  1  0.61440000  0.40480000  0.85930000  1
  C  C132  1  0.81030000  0.27050000  0.81430000  1
  C  C133  1  0.76670000  0.73390000  0.30850000  1
  C  C134  1  0.82330000  0.71590000  0.34270000  1
  C  C135  1  0.86190000  0.75690000  0.37410000  1
  C  C136  1  0.84480000  0.81510000  0.37220000  1
  C  C137  1  0.78900000  0.83430000  0.33840000  1
  C  C138  1  0.75010000  0.79330000  0.30670000  1
  C  C139  1  0.88560000  0.85930000  0.40480000  1
  C  C140  1  0.68970000  0.81430000  0.27050000  1
  C  C141  1  0.76670000  0.26610000  0.69150000  1
  C  C142  1  0.82330000  0.28410000  0.65730000  1
  C  C143  1  0.86190000  0.24310000  0.62590000  1
  C  C144  1  0.84480000  0.18490000  0.62780000  1
  C  C145  1  0.78900000  0.16570000  0.66160000  1
  C  C146  1  0.75010000  0.20670000  0.69330000  1
  C  C147  1  0.84300000  0.34720000  0.65410000  1
  C  C148  1  0.88560000  0.14070000  0.59520000  1
  C  C149  1  0.47160000  0.03580000  0.60010000  1
  C  C150  1  0.54800000  0.02740000  0.61250000  1
  C  C151  1  0.57460000  0.03460000  0.66820000  1
  C  C152  1  0.64580000  0.02540000  0.67860000  1
  C  C153  1  0.68990000  0.00910000  0.63330000  1
  C  C154  1  0.59250000  0.01160000  0.56680000  1
  C  C155  1  0.45010000  0.07800000  0.56040000  1
  C  C156  1  0.38020000  0.08180000  0.54400000  1
  C  C157  1  0.33110000  0.04350000  0.56760000  1
  C  C158  1  0.25570000  0.04460000  0.54760000  1
  C  C159  1  0.26670000  0.30850000  0.26610000  1
  C  C160  1  0.32330000  0.34270000  0.28410000  1
  C  C161  1  0.36190000  0.37410000  0.24310000  1
  C  C162  1  0.34480000  0.37220000  0.18490000  1
  C  C163  1  0.28900000  0.33840000  0.16570000  1
  C  C164  1  0.25010000  0.30670000  0.20670000  1
  C  C165  1  0.38560000  0.40480000  0.14070000  1
  C  C166  1  0.18970000  0.27050000  0.18570000  1
  C  C167  1  0.26670000  0.69150000  0.73390000  1
  C  C168  1  0.32330000  0.65730000  0.71590000  1
  C  C169  1  0.36190000  0.62590000  0.75690000  1
  C  C170  1  0.34480000  0.62780000  0.81510000  1
  C  C171  1  0.28900000  0.66160000  0.83430000  1
  C  C172  1  0.25010000  0.69330000  0.79330000  1
  C  C173  1  0.38560000  0.59520000  0.85930000  1
  C  C174  1  0.18970000  0.72950000  0.81430000  1
  C  C175  1  0.76670000  0.73390000  0.69150000  1
  C  C176  1  0.82330000  0.71590000  0.65730000  1
  C  C177  1  0.86190000  0.75690000  0.62590000  1
  C  C178  1  0.84480000  0.81510000  0.62780000  1
  C  C179  1  0.78900000  0.83430000  0.66160000  1
  C  C180  1  0.75010000  0.79330000  0.69330000  1
  C  C181  1  0.88560000  0.85930000  0.59520000  1
  C  C182  1  0.68970000  0.81430000  0.72950000  1
  C  C183  1  0.76670000  0.26610000  0.30850000  1
  C  C184  1  0.82330000  0.28410000  0.34270000  1
  C  C185  1  0.86190000  0.24310000  0.37410000  1
  C  C186  1  0.84480000  0.18490000  0.37220000  1
  C  C187  1  0.78900000  0.16570000  0.33840000  1
  C  C188  1  0.75010000  0.20670000  0.30670000  1
  C  C189  1  0.88560000  0.14070000  0.40480000  1
  C  C190  1  0.68970000  0.18570000  0.27050000  1
  C  C191  1  0.26670000  0.30850000  0.73390000  1
  C  C192  1  0.32330000  0.34270000  0.71590000  1
  C  C193  1  0.36190000  0.37410000  0.75690000  1
  C  C194  1  0.34480000  0.37220000  0.81510000  1
  C  C195  1  0.28900000  0.33840000  0.83430000  1
  C  C196  1  0.25010000  0.30670000  0.79330000  1
  C  C197  1  0.38560000  0.40480000  0.85930000  1
  C  C198  1  0.97160000  0.39990000  0.96420000  1
  C  C199  1  0.04800000  0.38750000  0.97260000  1
  C  C200  1  0.07460000  0.33180000  0.96540000  1
  C  C201  1  0.14580000  0.32140000  0.97460000  1
  C  C202  1  0.18990000  0.36670000  0.99090000  1
  C  C203  1  0.09250000  0.43320000  0.98840000  1
  C  C204  1  0.18970000  0.27050000  0.81430000  1
  C  C205  1  0.95010000  0.43960000  0.92200000  1
  C  C206  1  0.88020000  0.45600000  0.91820000  1
  C  C207  1  0.83110000  0.43240000  0.95650000  1
  C  C208  1  0.75570000  0.45240000  0.95540000  1
  C  C209  1  0.26670000  0.69150000  0.26610000  1
  C  C210  1  0.32330000  0.65730000  0.28410000  1
  C  C211  1  0.36190000  0.62590000  0.24310000  1
  C  C212  1  0.34480000  0.62780000  0.18490000  1
  C  C213  1  0.28900000  0.66160000  0.16570000  1
  C  C214  1  0.25010000  0.69330000  0.20670000  1
  C  C215  1  0.38560000  0.59520000  0.14070000  1
  C  C216  1  0.97160000  0.60010000  0.03580000  1
  C  C217  1  0.04800000  0.61250000  0.02740000  1
  C  C218  1  0.07460000  0.66820000  0.03460000  1
  C  C219  1  0.14580000  0.67860000  0.02540000  1
  C  C220  1  0.18990000  0.63330000  0.00910000  1
  C  C221  1  0.09250000  0.56680000  0.01160000  1
  C  C222  1  0.18970000  0.72950000  0.18570000  1
  C  C223  1  0.95010000  0.56040000  0.07800000  1
  C  C224  1  0.88020000  0.54400000  0.08180000  1
  C  C225  1  0.83110000  0.56760000  0.04350000  1
  C  C226  1  0.75570000  0.54760000  0.04460000  1
  C  C227  1  0.23330000  0.26610000  0.69150000  1
  C  C228  1  0.17670000  0.28410000  0.65730000  1
  C  C229  1  0.13810000  0.24310000  0.62590000  1
  C  C230  1  0.15520000  0.18490000  0.62780000  1
  C  C231  1  0.21100000  0.16570000  0.66160000  1
  C  C232  1  0.24990000  0.20670000  0.69330000  1
  C  C233  1  0.15700000  0.34720000  0.65410000  1
  C  C234  1  0.11440000  0.14070000  0.59520000  1
  C  C235  1  0.23330000  0.73390000  0.30850000  1
  C  C236  1  0.17670000  0.71590000  0.34270000  1
  C  C237  1  0.13810000  0.75690000  0.37410000  1
  C  C238  1  0.15520000  0.81510000  0.37220000  1
  C  C239  1  0.21100000  0.83430000  0.33840000  1
  C  C240  1  0.24990000  0.79330000  0.30670000  1
  C  C241  1  0.15700000  0.65280000  0.34590000  1
  C  C242  1  0.11440000  0.85930000  0.40480000  1
  C  C243  1  0.73330000  0.69150000  0.73390000  1
  C  C244  1  0.67670000  0.65730000  0.71590000  1
  C  C245  1  0.63810000  0.62590000  0.75690000  1
  C  C246  1  0.65520000  0.62780000  0.81510000  1
  C  C247  1  0.71100000  0.66160000  0.83430000  1
  C  C248  1  0.74990000  0.69330000  0.79330000  1
  C  C249  1  0.61440000  0.59520000  0.85930000  1
  C  C250  1  0.81030000  0.72950000  0.81430000  1
  C  C251  1  0.73330000  0.30850000  0.26610000  1
  C  C252  1  0.67670000  0.34270000  0.28410000  1
  C  C253  1  0.63810000  0.37410000  0.24310000  1
  C  C254  1  0.65520000  0.37220000  0.18490000  1
  C  C255  1  0.71100000  0.33840000  0.16570000  1
  C  C256  1  0.74990000  0.30670000  0.20670000  1
  C  C257  1  0.65700000  0.34590000  0.34720000  1
  C  C258  1  0.61440000  0.40480000  0.14070000  1
  C  C259  1  0.66240000  0.00000000  0.57770000  1
  C  C260  1  0.76720000  0.00000000  0.64400000  1
  C  C261  1  0.35350000  0.00000000  0.60590000  1
  C  C262  1  0.42210000  0.00000000  0.62530000  1
  C  C263  1  0.16240000  0.42230000  0.00000000  1
  C  C264  1  0.26720000  0.35600000  0.00000000  1
  C  C265  1  0.85350000  0.39410000  0.00000000  1
  C  C266  1  0.92210000  0.37470000  0.00000000  1
  C  C267  1  0.16240000  0.57770000  0.00000000  1
  C  C268  1  0.26720000  0.64400000  0.00000000  1
  C  C269  1  0.85350000  0.60590000  0.00000000  1
  C  C270  1  0.92210000  0.62530000  0.00000000  1
  C  C271  1  0.76720000  0.00000000  0.35600000  1
  C  C272  1  0.47160000  0.96420000  0.39990000  1
  C  C273  1  0.54800000  0.97260000  0.38750000  1
  C  C274  1  0.57460000  0.96540000  0.33180000  1
  C  C275  1  0.64580000  0.97460000  0.32140000  1
  C  C276  1  0.68990000  0.99090000  0.36670000  1
  C  C277  1  0.59250000  0.98840000  0.43320000  1
  C  C278  1  0.45010000  0.92200000  0.43960000  1
  C  C279  1  0.38020000  0.91820000  0.45600000  1
  C  C280  1  0.33110000  0.95650000  0.43240000  1
  C  C281  1  0.25570000  0.95540000  0.45240000  1
  C  C282  1  0.66240000  0.00000000  0.42230000  1
  C  C283  1  0.35350000  0.00000000  0.39410000  1
  C  C284  1  0.42210000  0.00000000  0.37470000  1
  N  N285  1  0.52920000  0.04400000  0.71580000  1
  N  N286  1  0.02920000  0.28420000  0.95600000  1
  N  N287  1  0.02920000  0.71580000  0.04400000  1
  N  N288  1  0.00000000  0.53700000  0.11700000  1
  N  N289  1  0.00000000  0.46300000  0.88300000  1
  N  N290  1  0.50000000  0.11700000  0.53700000  1
  N  N291  1  0.50000000  0.88300000  0.46300000  1
  N  N292  1  0.52920000  0.95600000  0.28420000  1
  O  O293  1  0.06970000  0.15810000  0.44120000  1
  O  O294  1  0.12750000  0.08800000  0.39360000  1
  O  O295  1  0.06970000  0.84190000  0.55880000  1
  O  O296  1  0.12750000  0.91200000  0.60640000  1
  O  O297  1  0.56970000  0.55880000  0.15810000  1
  O  O298  1  0.62750000  0.60640000  0.08800000  1
  O  O299  1  0.56970000  0.44120000  0.84190000  1
  O  O300  1  0.62750000  0.39360000  0.91200000  1
  O  O301  1  0.93030000  0.84190000  0.44120000  1
  O  O302  1  0.87250000  0.91200000  0.39360000  1
  O  O303  1  0.93030000  0.15810000  0.55880000  1
  O  O304  1  0.87250000  0.08800000  0.60640000  1
  O  O305  1  0.23650000  0.08970000  0.52120000  1
  O  O306  1  0.43030000  0.44120000  0.15810000  1
  O  O307  1  0.37250000  0.39360000  0.08800000  1
  O  O308  1  0.43030000  0.55880000  0.84190000  1
  O  O309  1  0.37250000  0.60640000  0.91200000  1
  O  O310  1  0.93030000  0.84190000  0.55880000  1
  O  O311  1  0.87250000  0.91200000  0.60640000  1
  O  O312  1  0.93030000  0.15810000  0.44120000  1
  O  O313  1  0.43030000  0.44120000  0.84190000  1
  O  O314  1  0.37250000  0.39360000  0.91200000  1
  O  O315  1  0.73650000  0.47880000  0.91030000  1
  O  O316  1  0.43030000  0.55880000  0.15810000  1
  O  O317  1  0.37250000  0.60640000  0.08800000  1
  O  O318  1  0.73650000  0.52120000  0.08970000  1
  O  O319  1  0.06970000  0.15810000  0.55880000  1
  O  O320  1  0.12750000  0.08800000  0.60640000  1
  O  O321  1  0.06970000  0.84190000  0.44120000  1
  O  O322  1  0.12750000  0.91200000  0.39360000  1
  O  O323  1  0.56970000  0.55880000  0.84190000  1
  O  O324  1  0.62750000  0.60640000  0.91200000  1
  O  O325  1  0.56970000  0.44120000  0.15810000  1
  O  O326  1  0.62750000  0.39360000  0.08800000  1
  O  O327  1  0.80310000  0.00000000  0.40200000  1
  O  O328  1  0.80310000  0.00000000  0.59800000  1
  O  O329  1  0.79290000  0.00000000  0.69420000  1
  O  O330  1  0.21820000  0.00000000  0.55900000  1
  O  O331  1  0.30310000  0.40200000  0.00000000  1
  O  O332  1  0.29290000  0.30580000  0.00000000  1
  O  O333  1  0.71820000  0.44100000  0.00000000  1
  O  O334  1  0.30310000  0.59800000  0.00000000  1
  O  O335  1  0.29290000  0.69420000  0.00000000  1
  O  O336  1  0.71820000  0.55900000  0.00000000  1
  O  O337  1  0.00000000  0.05430000  0.58080000  1
  O  O338  1  1.00000000  0.94570000  0.41920000  1
  O  O339  1  0.50000000  0.41920000  0.05430000  1
  O  O340  1  0.50000000  0.58080000  0.94570000  1
  O  O341  1  1.00000000  0.94570000  0.58080000  1
  O  O342  1  0.00000000  0.05430000  0.41920000  1
  O  O343  1  0.50000000  0.58080000  0.05430000  1
  O  O344  1  0.50000000  0.41920000  0.94570000  1
  O  O345  1  0.09130000  0.05290000  0.50000000  1
  O  O346  1  0.09130000  0.94710000  0.50000000  1
  O  O347  1  0.59130000  0.50000000  0.05290000  1
  O  O348  1  0.59130000  0.50000000  0.94710000  1
  O  O349  1  0.90870000  0.94710000  0.50000000  1
  O  O350  1  0.90870000  0.05290000  0.50000000  1
  O  O351  1  0.40870000  0.50000000  0.05290000  1
  O  O352  1  0.40870000  0.50000000  0.94710000  1
  O  O353  1  0.79290000  0.00000000  0.30580000  1
  O  O354  1  0.23650000  0.91030000  0.47880000  1
  O  O355  1  0.21820000  1.00000000  0.44100000  1
  F  F356  1  0.37050000  0.21210000  0.28300000  1
  F  F357  1  0.32270000  0.12840000  0.27810000  1
  F  F358  1  0.30050000  0.19230000  0.21330000  1
  F  F359  1  0.13200000  0.63110000  0.70370000  1
  F  F360  1  0.20900000  0.61750000  0.63890000  1
  F  F361  1  0.10670000  0.64200000  0.61480000  1
  F  F362  1  0.63200000  0.70370000  0.36890000  1
  F  F363  1  0.70900000  0.63890000  0.38250000  1
  F  F364  1  0.60670000  0.61480000  0.35800000  1
  F  F365  1  0.87050000  0.28300000  0.78790000  1
  F  F366  1  0.82270000  0.27810000  0.87160000  1
  F  F367  1  0.80050000  0.21330000  0.80770000  1
  F  F368  1  0.62950000  0.78790000  0.28300000  1
  F  F369  1  0.67730000  0.87160000  0.27810000  1
  F  F370  1  0.69950000  0.80770000  0.21330000  1
  F  F371  1  0.86800000  0.36890000  0.70370000  1
  F  F372  1  0.79100000  0.38250000  0.63890000  1
  F  F373  1  0.89330000  0.35800000  0.61480000  1
  F  F374  1  0.12950000  0.28300000  0.21210000  1
  F  F375  1  0.17730000  0.27810000  0.12840000  1
  F  F376  1  0.19950000  0.21330000  0.19230000  1
  F  F377  1  0.12950000  0.71700000  0.78790000  1
  F  F378  1  0.17730000  0.72190000  0.87160000  1
  F  F379  1  0.19950000  0.78670000  0.80770000  1
  F  F380  1  0.62950000  0.78790000  0.71700000  1
  F  F381  1  0.67730000  0.87160000  0.72190000  1
  F  F382  1  0.69950000  0.80770000  0.78670000  1
  F  F383  1  0.62950000  0.21210000  0.28300000  1
  F  F384  1  0.67730000  0.12840000  0.27810000  1
  F  F385  1  0.69950000  0.19230000  0.21330000  1
  F  F386  1  0.12950000  0.28300000  0.78790000  1
  F  F387  1  0.17730000  0.27810000  0.87160000  1
  F  F388  1  0.19950000  0.21330000  0.80770000  1
  F  F389  1  0.12950000  0.71700000  0.21210000  1
  F  F390  1  0.17730000  0.72190000  0.12840000  1
  F  F391  1  0.19950000  0.78670000  0.19230000  1
  F  F392  1  0.13200000  0.36890000  0.70370000  1
  F  F393  1  0.20900000  0.38250000  0.63890000  1
  F  F394  1  0.10670000  0.35800000  0.61480000  1
  F  F395  1  0.13200000  0.63110000  0.29630000  1
  F  F396  1  0.20900000  0.61750000  0.36110000  1
  F  F397  1  0.10670000  0.64200000  0.38520000  1
  F  F398  1  0.87050000  0.71700000  0.78790000  1
  F  F399  1  0.82270000  0.72190000  0.87160000  1
  F  F400  1  0.80050000  0.78670000  0.80770000  1
  F  F401  1  0.63200000  0.29630000  0.36890000  1
  F  F402  1  0.70900000  0.36110000  0.38250000  1
  F  F403  1  0.60670000  0.38520000  0.35800000  1
