# generated using pymatgen
data_Zr3H16C39(O5F4)3
_symmetry_space_group_name_H-M   'P 1'
_cell_length_a   19.02010000
_cell_length_b   22.89950000
_cell_length_c   22.89950000
_cell_angle_alpha   90.00000000
_cell_angle_beta   90.00000000
_cell_angle_gamma   90.00000000
_symmetry_Int_Tables_number   1
_chemical_formula_structural   Zr3H16C39(O5F4)3
_chemical_formula_sum   'Zr12 H64 C156 O60 F48'
_cell_volume   9973.89508547
_cell_formula_units_Z   4
loop_
 _symmetry_equiv_pos_site_id
 _symmetry_equiv_pos_as_xyz
  1  'x, y, z'
loop_
 _atom_site_type_symbol
 _atom_site_label
 _atom_site_symmetry_multiplicity
 _atom_site_fract_x
 _atom_site_fract_y
 _atom_site_fract_z
 _atom_site_occupancy
  Zr  Zr0  1  0.09283000  0.00000000  0.42394000  1
  Zr  Zr1  1  0.09283000  0.00000000  0.57606000  1
  Zr  Zr2  1  0.59283000  0.57606000  0.00000000  1
  Zr  Zr3  1  0.59283000  0.42394000  0.00000000  1
  Zr  Zr4  1  0.90717000  0.00000000  0.42394000  1
  Zr  Zr5  1  0.90717000  0.00000000  0.57606000  1
  Zr  Zr6  1  0.40717000  0.42394000  0.00000000  1
  Zr  Zr7  1  0.40717000  0.57606000  0.00000000  1
  Zr  Zr8  1  0.00000000  0.10788000  0.50000000  1
  Zr  Zr9  1  0.00000000  0.89212000  0.50000000  1
  Zr  Zr10  1  0.50000000  0.50000000  0.10788000  1
  Zr  Zr11  1  0.50000000  0.50000000  0.89212000  1
  H  H12  1  0.10670000  0.25540000  0.40230000  1
  H  H13  1  0.22080000  0.12450000  0.33760000  1
  H  H14  1  0.10670000  0.74460000  0.59770000  1
  H  H15  1  0.22080000  0.87550000  0.66240000  1
  H  H16  1  0.60670000  0.59770000  0.25540000  1
  H  H17  1  0.72080000  0.66240000  0.12450000  1
  H  H18  1  0.60670000  0.40230000  0.74460000  1
  H  H19  1  0.72080000  0.33760000  0.87550000  1
  H  H20  1  0.89330000  0.74460000  0.40230000  1
  H  H21  1  0.77920000  0.87550000  0.33760000  1
  H  H22  1  0.89330000  0.25540000  0.59770000  1
  H  H23  1  0.77920000  0.12450000  0.66240000  1
  H  H24  1  0.39330000  0.40230000  0.25540000  1
  H  H25  1  0.27920000  0.33760000  0.12450000  1
  H  H26  1  0.39330000  0.59770000  0.74460000  1
  H  H27  1  0.27920000  0.66240000  0.87550000  1
  H  H28  1  0.89330000  0.74460000  0.59770000  1
  H  H29  1  0.77920000  0.87550000  0.66240000  1
  H  H30  1  0.89330000  0.25540000  0.40230000  1
  H  H31  1  0.77920000  0.12450000  0.33760000  1
  H  H32  1  0.39330000  0.40230000  0.74460000  1
  H  H33  1  0.27920000  0.33760000  0.87550000  1
  H  H34  1  0.39330000  0.59770000  0.25540000  1
  H  H35  1  0.27920000  0.66240000  0.12450000  1
  H  H36  1  0.10670000  0.25540000  0.59770000  1
  H  H37  1  0.22080000  0.12450000  0.66240000  1
  H  H38  1  0.10670000  0.74460000  0.40230000  1
  H  H39  1  0.22080000  0.87550000  0.33760000  1
  H  H40  1  0.60670000  0.59770000  0.74460000  1
  H  H41  1  0.72080000  0.66240000  0.87550000  1
  H  H42  1  0.60670000  0.40230000  0.25540000  1
  H  H43  1  0.72080000  0.33760000  0.12450000  1
  H  H44  1  0.32420000  0.00000000  0.41150000  1
  H  H45  1  0.44350000  1.00000000  0.36250000  1
  H  H46  1  0.32420000  1.00000000  0.58850000  1
  H  H47  1  0.44700000  1.00000000  0.58860000  1
  H  H48  1  0.82420000  0.58850000  0.00000000  1
  H  H49  1  0.94350000  0.63750000  0.00000000  1
  H  H50  1  0.82420000  0.41150000  0.00000000  1
  H  H51  1  0.94700000  0.41140000  0.00000000  1
  H  H52  1  0.67580000  0.00000000  0.41150000  1
  H  H53  1  0.55300000  0.00000000  0.41140000  1
  H  H54  1  0.67580000  1.00000000  0.58850000  1
  H  H55  1  0.55650000  1.00000000  0.63750000  1
  H  H56  1  0.17580000  0.41150000  0.00000000  1
  H  H57  1  0.05650000  0.36250000  0.00000000  1
  H  H58  1  0.17580000  0.58850000  0.00000000  1
  H  H59  1  0.05300000  0.58860000  0.00000000  1
  H  H60  1  0.79936000  0.71577000  0.18783000  1
  H  H61  1  0.79936000  0.28423000  0.81217000  1
  H  H62  1  0.82790000  0.66945000  0.34683000  1
  H  H63  1  0.70064000  0.18783000  0.71577000  1
  H  H64  1  0.82790000  0.66945000  0.65317000  1
  H  H65  1  0.82790000  0.33055000  0.34683000  1
  H  H66  1  0.79936000  0.71577000  0.81217000  1
  H  H67  1  0.79936000  0.28423000  0.18783000  1
  H  H68  1  0.17210000  0.33055000  0.34683000  1
  H  H69  1  0.29936000  0.81217000  0.71577000  1
  H  H70  1  0.32790000  0.34683000  0.33055000  1
  H  H71  1  0.32790000  0.65317000  0.66945000  1
  H  H72  1  0.32790000  0.34683000  0.66945000  1
  H  H73  1  0.32790000  0.65317000  0.33055000  1
  H  H74  1  0.17210000  0.33055000  0.65317000  1
  H  H75  1  0.17210000  0.66945000  0.34683000  1
  C  C76  1  0.11520000  0.14000000  0.40480000  1
  C  C77  1  0.15650000  0.18490000  0.37190000  1
  C  C78  1  0.14240000  0.24190000  0.37660000  1
  C  C79  1  0.18170000  0.28160000  0.34250000  1
  C  C80  1  0.23210000  0.26300000  0.30350000  1
  C  C81  1  0.25030000  0.20460000  0.30740000  1
  C  C82  1  0.21040000  0.16500000  0.33900000  1
  C  C83  1  0.30640000  0.17940000  0.27070000  1
  C  C84  1  0.11520000  0.86000000  0.59520000  1
  C  C85  1  0.15650000  0.81510000  0.62810000  1
  C  C86  1  0.14240000  0.75810000  0.62340000  1
  C  C87  1  0.18170000  0.71840000  0.65750000  1
  C  C88  1  0.23210000  0.73700000  0.69650000  1
  C  C89  1  0.25030000  0.79540000  0.69260000  1
  C  C90  1  0.21040000  0.83500000  0.66100000  1
  C  C91  1  0.15620000  0.65780000  0.65900000  1
  C  C92  1  0.61520000  0.59520000  0.14000000  1
  C  C93  1  0.65650000  0.62810000  0.18490000  1
  C  C94  1  0.64240000  0.62340000  0.24190000  1
  C  C95  1  0.68170000  0.65750000  0.28160000  1
  C  C96  1  0.73210000  0.69650000  0.26300000  1
  C  C97  1  0.75030000  0.69260000  0.20460000  1
  C  C98  1  0.71040000  0.66100000  0.16500000  1
  C  C99  1  0.65620000  0.65900000  0.34220000  1
  C  C100  1  0.61520000  0.40480000  0.86000000  1
  C  C101  1  0.65650000  0.37190000  0.81510000  1
  C  C102  1  0.64240000  0.37660000  0.75810000  1
  C  C103  1  0.68170000  0.34250000  0.71840000  1
  C  C104  1  0.73210000  0.30350000  0.73700000  1
  C  C105  1  0.75030000  0.30740000  0.79540000  1
  C  C106  1  0.71040000  0.33900000  0.83500000  1
  C  C107  1  0.65620000  0.34100000  0.65780000  1
  C  C108  1  0.88480000  0.86000000  0.40480000  1
  C  C109  1  0.84350000  0.81510000  0.37190000  1
  C  C110  1  0.85760000  0.75810000  0.37660000  1
  C  C111  1  0.81830000  0.71840000  0.34250000  1
  C  C112  1  0.76790000  0.73700000  0.30350000  1
  C  C113  1  0.74970000  0.79540000  0.30740000  1
  C  C114  1  0.78960000  0.83500000  0.33900000  1
  C  C115  1  0.69360000  0.82060000  0.27070000  1
  C  C116  1  0.88480000  0.14000000  0.59520000  1
  C  C117  1  0.84350000  0.18490000  0.62810000  1
  C  C118  1  0.85760000  0.24190000  0.62340000  1
  C  C119  1  0.81830000  0.28160000  0.65750000  1
  C  C120  1  0.76790000  0.26300000  0.69650000  1
  C  C121  1  0.74970000  0.20460000  0.69260000  1
  C  C122  1  0.78960000  0.16500000  0.66100000  1
  C  C123  1  0.84380000  0.34220000  0.65900000  1
  C  C124  1  0.38480000  0.40480000  0.14000000  1
  C  C125  1  0.34350000  0.37190000  0.18490000  1
  C  C126  1  0.35760000  0.37660000  0.24190000  1
  C  C127  1  0.31830000  0.34250000  0.28160000  1
  C  C128  1  0.26790000  0.30350000  0.26300000  1
  C  C129  1  0.24970000  0.30740000  0.20460000  1
  C  C130  1  0.28960000  0.33900000  0.16500000  1
  C  C131  1  0.19360000  0.27070000  0.17940000  1
  C  C132  1  0.38480000  0.59520000  0.86000000  1
  C  C133  1  0.34350000  0.62810000  0.81510000  1
  C  C134  1  0.35760000  0.62340000  0.75810000  1
  C  C135  1  0.31830000  0.65750000  0.71840000  1
  C  C136  1  0.26790000  0.69650000  0.73700000  1
  C  C137  1  0.24970000  0.69260000  0.79540000  1
  C  C138  1  0.28960000  0.66100000  0.83500000  1
  C  C139  1  0.19360000  0.72930000  0.82060000  1
  C  C140  1  0.88480000  0.86000000  0.59520000  1
  C  C141  1  0.84350000  0.81510000  0.62810000  1
  C  C142  1  0.85760000  0.75810000  0.62340000  1
  C  C143  1  0.81830000  0.71840000  0.65750000  1
  C  C144  1  0.76790000  0.73700000  0.69650000  1
  C  C145  1  0.74970000  0.79540000  0.69260000  1
  C  C146  1  0.78960000  0.83500000  0.66100000  1
  C  C147  1  0.69360000  0.82060000  0.72930000  1
  C  C148  1  0.88480000  0.14000000  0.40480000  1
  C  C149  1  0.84350000  0.18490000  0.37190000  1
  C  C150  1  0.85760000  0.24190000  0.37660000  1
  C  C151  1  0.81830000  0.28160000  0.34250000  1
  C  C152  1  0.76790000  0.26300000  0.30350000  1
  C  C153  1  0.74970000  0.20460000  0.30740000  1
  C  C154  1  0.78960000  0.16500000  0.33900000  1
  C  C155  1  0.69360000  0.17940000  0.27070000  1
  C  C156  1  0.38480000  0.40480000  0.86000000  1
  C  C157  1  0.34350000  0.37190000  0.81510000  1
  C  C158  1  0.35760000  0.37660000  0.75810000  1
  C  C159  1  0.31830000  0.34250000  0.71840000  1
  C  C160  1  0.26790000  0.30350000  0.73700000  1
  C  C161  1  0.24970000  0.30740000  0.79540000  1
  C  C162  1  0.28960000  0.33900000  0.83500000  1
  C  C163  1  0.19360000  0.27070000  0.82060000  1
  C  C164  1  0.38480000  0.59520000  0.14000000  1
  C  C165  1  0.34350000  0.62810000  0.18490000  1
  C  C166  1  0.35760000  0.62340000  0.24190000  1
  C  C167  1  0.31830000  0.65750000  0.28160000  1
  C  C168  1  0.26790000  0.69650000  0.26300000  1
  C  C169  1  0.24970000  0.69260000  0.20460000  1
  C  C170  1  0.28960000  0.66100000  0.16500000  1
  C  C171  1  0.19360000  0.72930000  0.17940000  1
  C  C172  1  0.11520000  0.14000000  0.59520000  1
  C  C173  1  0.15650000  0.18490000  0.62810000  1
  C  C174  1  0.14240000  0.24190000  0.62340000  1
  C  C175  1  0.18170000  0.28160000  0.65750000  1
  C  C176  1  0.23210000  0.26300000  0.69650000  1
  C  C177  1  0.25030000  0.20460000  0.69260000  1
  C  C178  1  0.21040000  0.16500000  0.66100000  1
  C  C179  1  0.30640000  0.17940000  0.72930000  1
  C  C180  1  0.11520000  0.86000000  0.40480000  1
  C  C181  1  0.15650000  0.81510000  0.37190000  1
  C  C182  1  0.14240000  0.75810000  0.37660000  1
  C  C183  1  0.18170000  0.71840000  0.34250000  1
  C  C184  1  0.23210000  0.73700000  0.30350000  1
  C  C185  1  0.25030000  0.79540000  0.30740000  1
  C  C186  1  0.21040000  0.83500000  0.33900000  1
  C  C187  1  0.30640000  0.82060000  0.27070000  1
  C  C188  1  0.61520000  0.59520000  0.86000000  1
  C  C189  1  0.65650000  0.62810000  0.81510000  1
  C  C190  1  0.64240000  0.62340000  0.75810000  1
  C  C191  1  0.68170000  0.65750000  0.71840000  1
  C  C192  1  0.73210000  0.69650000  0.73700000  1
  C  C193  1  0.75030000  0.69260000  0.79540000  1
  C  C194  1  0.71040000  0.66100000  0.83500000  1
  C  C195  1  0.65620000  0.65900000  0.65780000  1
  C  C196  1  0.61520000  0.40480000  0.14000000  1
  C  C197  1  0.65650000  0.37190000  0.18490000  1
  C  C198  1  0.64240000  0.37660000  0.24190000  1
  C  C199  1  0.68170000  0.34250000  0.28160000  1
  C  C200  1  0.73210000  0.30350000  0.26300000  1
  C  C201  1  0.75030000  0.30740000  0.20460000  1
  C  C202  1  0.71040000  0.33900000  0.16500000  1
  C  C203  1  0.65620000  0.34100000  0.34220000  1
  C  C204  1  0.34920000  1.00000000  0.44739000  1
  C  C205  1  0.42230000  1.00000000  0.44744000  1
  C  C206  1  0.34920000  1.00000000  0.55261000  1
  C  C207  1  0.42230000  0.00000000  0.55256000  1
  C  C208  1  0.84920000  0.55261000  0.00000000  1
  C  C209  1  0.92230000  0.55256000  0.00000000  1
  C  C210  1  0.84920000  0.44739000  0.00000000  1
  C  C211  1  0.92230000  0.44744000  0.00000000  1
  C  C212  1  0.65080000  1.00000000  0.44739000  1
  C  C213  1  0.57770000  1.00000000  0.44744000  1
  C  C214  1  0.65080000  1.00000000  0.55261000  1
  C  C215  1  0.57770000  0.00000000  0.55256000  1
  C  C216  1  0.15080000  0.44739000  0.00000000  1
  C  C217  1  0.07770000  0.44744000  0.00000000  1
  C  C218  1  0.15080000  0.55261000  0.00000000  1
  C  C219  1  0.07770000  0.55256000  0.00000000  1
  C  C220  1  0.23300000  0.00000000  0.50000000  1
  C  C221  1  0.31260000  0.00000000  0.50000000  1
  C  C222  1  0.45990000  0.00000000  0.50000000  1
  C  C223  1  0.73300000  0.50000000  0.00000000  1
  C  C224  1  0.81260000  0.50000000  0.00000000  1
  C  C225  1  0.95990000  0.50000000  0.00000000  1
  C  C226  1  0.76700000  0.00000000  0.50000000  1
  C  C227  1  0.68740000  0.00000000  0.50000000  1
  C  C228  1  0.54010000  0.00000000  0.50000000  1
  C  C229  1  0.26700000  0.50000000  0.00000000  1
  C  C230  1  0.18740000  0.50000000  0.00000000  1
  C  C231  1  0.04010000  0.50000000  0.00000000  1
  O  O232  1  0.07000000  0.15810000  0.44160000  1
  O  O233  1  0.13040000  0.08690000  0.39440000  1
  O  O234  1  0.07000000  0.84190000  0.55840000  1
  O  O235  1  0.13040000  0.91310000  0.60560000  1
  O  O236  1  0.57000000  0.55840000  0.15810000  1
  O  O237  1  0.63040000  0.60560000  0.08690000  1
  O  O238  1  0.57000000  0.44160000  0.84190000  1
  O  O239  1  0.63040000  0.39440000  0.91310000  1
  O  O240  1  0.93000000  0.84190000  0.44160000  1
  O  O241  1  0.86960000  0.91310000  0.39440000  1
  O  O242  1  0.93000000  0.15810000  0.55840000  1
  O  O243  1  0.86960000  0.08690000  0.60560000  1
  O  O244  1  0.43000000  0.44160000  0.15810000  1
  O  O245  1  0.36960000  0.39440000  0.08690000  1
  O  O246  1  0.43000000  0.55840000  0.84190000  1
  O  O247  1  0.36960000  0.60560000  0.91310000  1
  O  O248  1  0.93000000  0.84190000  0.55840000  1
  O  O249  1  0.86960000  0.91310000  0.60560000  1
  O  O250  1  0.93000000  0.15810000  0.44160000  1
  O  O251  1  0.86960000  0.08690000  0.39440000  1
  O  O252  1  0.43000000  0.44160000  0.84190000  1
  O  O253  1  0.36960000  0.39440000  0.91310000  1
  O  O254  1  0.43000000  0.55840000  0.15810000  1
  O  O255  1  0.36960000  0.60560000  0.08690000  1
  O  O256  1  0.07000000  0.15810000  0.55840000  1
  O  O257  1  0.13040000  0.08690000  0.60560000  1
  O  O258  1  0.07000000  0.84190000  0.44160000  1
  O  O259  1  0.13040000  0.91310000  0.39440000  1
  O  O260  1  0.57000000  0.55840000  0.84190000  1
  O  O261  1  0.63040000  0.60560000  0.91310000  1
  O  O262  1  0.57000000  0.44160000  0.15810000  1
  O  O263  1  0.63040000  0.39440000  0.08690000  1
  O  O264  1  0.20790000  1.00000000  0.44410000  1
  O  O265  1  0.45880000  1.00000000  0.39690000  1
  O  O266  1  0.20790000  0.00000000  0.55590000  1
  O  O267  1  0.70790000  0.55590000  0.00000000  1
  O  O268  1  0.95880000  0.60310000  0.00000000  1
  O  O269  1  0.70790000  0.44410000  0.00000000  1
  O  O270  1  0.79210000  1.00000000  0.44410000  1
  O  O271  1  0.79210000  0.00000000  0.55590000  1
  O  O272  1  0.54120000  1.00000000  0.60310000  1
  O  O273  1  0.29210000  0.44410000  0.00000000  1
  O  O274  1  0.04120000  0.39690000  0.00000000  1
  O  O275  1  0.29210000  0.55590000  0.00000000  1
  O  O276  1  0.00000000  0.05410000  0.42120000  1
  O  O277  1  1.00000000  0.94590000  0.57880000  1
  O  O278  1  0.50000000  0.57880000  0.05410000  1
  O  O279  1  0.50000000  0.42120000  0.94590000  1
  O  O280  1  1.00000000  0.94590000  0.42120000  1
  O  O281  1  0.00000000  0.05410000  0.57880000  1
  O  O282  1  0.50000000  0.42120000  0.05410000  1
  O  O283  1  0.50000000  0.57880000  0.94590000  1
  O  O284  1  0.09050000  0.94830000  0.50000000  1
  O  O285  1  0.09050000  0.05170000  0.50000000  1
  O  O286  1  0.59050000  0.50000000  0.94830000  1
  O  O287  1  0.59050000  0.50000000  0.05170000  1
  O  O288  1  0.90950000  0.05170000  0.50000000  1
  O  O289  1  0.90950000  0.94830000  0.50000000  1
  O  O290  1  0.40950000  0.50000000  0.94830000  1
  O  O291  1  0.40950000  0.50000000  0.05170000  1
  F  F292  1  0.29710000  0.17320000  0.20640000  1
  F  F293  1  0.32660000  0.11610000  0.28140000  1
  F  F294  1  0.37830000  0.20390000  0.27130000  1
  F  F295  1  0.08970000  0.64230000  0.62700000  1
  F  F296  1  0.19960000  0.60910000  0.63680000  1
  F  F297  1  0.13550000  0.63130000  0.71630000  1
  F  F298  1  0.58970000  0.62700000  0.35770000  1
  F  F299  1  0.69960000  0.63680000  0.39090000  1
  F  F300  1  0.63550000  0.71630000  0.36870000  1
  F  F301  1  0.58970000  0.37300000  0.64230000  1
  F  F302  1  0.69960000  0.36320000  0.60910000  1
  F  F303  1  0.63550000  0.28370000  0.63130000  1
  F  F304  1  0.70290000  0.82680000  0.20640000  1
  F  F305  1  0.67340000  0.88390000  0.28140000  1
  F  F306  1  0.62170000  0.79610000  0.27130000  1
  F  F307  1  0.91030000  0.35770000  0.62700000  1
  F  F308  1  0.80040000  0.39090000  0.63680000  1
  F  F309  1  0.86450000  0.36870000  0.71630000  1
  F  F310  1  0.20290000  0.20640000  0.17320000  1
  F  F311  1  0.17340000  0.28140000  0.11610000  1
  F  F312  1  0.12170000  0.27130000  0.20390000  1
  F  F313  1  0.20290000  0.79360000  0.82680000  1
  F  F314  1  0.17340000  0.71860000  0.88390000  1
  F  F315  1  0.12170000  0.72870000  0.79610000  1
  F  F316  1  0.70290000  0.82680000  0.79360000  1
  F  F317  1  0.67340000  0.88390000  0.71860000  1
  F  F318  1  0.62170000  0.79610000  0.72870000  1
  F  F319  1  0.70290000  0.17320000  0.20640000  1
  F  F320  1  0.67340000  0.11610000  0.28140000  1
  F  F321  1  0.62170000  0.20390000  0.27130000  1
  F  F322  1  0.20290000  0.20640000  0.82680000  1
  F  F323  1  0.17340000  0.28140000  0.88390000  1
  F  F324  1  0.12170000  0.27130000  0.79610000  1
  F  F325  1  0.20290000  0.79360000  0.17320000  1
  F  F326  1  0.17340000  0.71860000  0.11610000  1
  F  F327  1  0.12170000  0.72870000  0.20390000  1
  F  F328  1  0.29710000  0.17320000  0.79360000  1
  F  F329  1  0.32660000  0.11610000  0.71860000  1
  F  F330  1  0.37830000  0.20390000  0.72870000  1
  F  F331  1  0.29710000  0.82680000  0.20640000  1
  F  F332  1  0.32660000  0.88390000  0.28140000  1
  F  F333  1  0.37830000  0.79610000  0.27130000  1
  F  F334  1  0.58970000  0.62700000  0.64230000  1
  F  F335  1  0.69960000  0.63680000  0.60910000  1
  F  F336  1  0.63550000  0.71630000  0.63130000  1
  F  F337  1  0.58970000  0.37300000  0.35770000  1
  F  F338  1  0.69960000  0.36320000  0.39090000  1
  F  F339  1  0.63550000  0.28370000  0.36870000  1
