# generated using pymatgen
data_Zr3P2H49Ir2C77O17
_symmetry_space_group_name_H-M   'P 1'
_cell_length_a   19.78300000
_cell_length_b   21.51000000
_cell_length_c   23.02300000
_cell_angle_alpha   117.80600000
_cell_angle_beta   111.82400000
_cell_angle_gamma   90.02200000
_symmetry_Int_Tables_number   1
_chemical_formula_structural   Zr3P2H49Ir2C77O17
_chemical_formula_sum   'Zr6 P4 H98 Ir4 C154 O34'
_cell_volume   7862.44963026
_cell_formula_units_Z   2
loop_
 _symmetry_equiv_pos_site_id
 _symmetry_equiv_pos_as_xyz
  1  'x, y, z'
loop_
 _atom_site_type_symbol
 _atom_site_label
 _atom_site_symmetry_multiplicity
 _atom_site_fract_x
 _atom_site_fract_y
 _atom_site_fract_z
 _atom_site_occupancy
  Zr  Zr0  1  0.99964000  0.11476000  0.50030000  1
  Zr  Zr1  1  0.08117000  0.06648000  0.63127000  1
  Zr  Zr2  1  0.88797000  0.01146000  0.52454000  1
  Zr  Zr3  1  0.00036000  0.88524000  0.49970000  1
  Zr  Zr4  1  0.91883000  0.93352000  0.36873000  1
  Zr  Zr5  1  0.11203000  0.98854000  0.47546000  1
  P  P6  1  0.80980000  0.22980000  0.96200000  1
  P  P7  1  0.39830000  0.40550000  0.31240000  1
  P  P8  1  0.19020000  0.77020000  0.03800000  1
  P  P9  1  0.60170000  0.59450000  0.68760000  1
  H  H10  1  0.67396000  0.28253000  0.98305000  1
  H  H11  1  0.05254000  0.26743000  0.02396000  1
  H  H12  1  0.12674000  0.13083000  0.76506000  1
  H  H13  1  0.33717000  0.74591000  0.40574000  1
  H  H14  1  0.17341000  0.60572000  0.40443000  1
  H  H15  1  0.53702000  0.22742000  0.90236000  1
  H  H16  1  0.59299000  0.07628000  0.72690000  1
  H  H17  1  0.72984000  0.13149000  0.80737000  1
  H  H18  1  0.46717000  0.34582000  0.39807000  1
  H  H19  1  0.41713000  0.28036000  0.44634000  1
  H  H20  1  0.18925000  0.27522000  0.31436000  1
  H  H21  1  0.23847000  0.34019000  0.26556000  1
  H  H22  1  0.26160000  0.83579000  0.43551000  1
  H  H23  1  0.35908000  0.04339000  0.58704000  1
  H  H24  1  0.49628000  0.08356000  0.67182000  1
  H  H25  1  0.43988000  0.18245000  0.85806000  1
  H  H26  1  0.30281000  0.14216000  0.77337000  1
  H  H27  1  0.26644000  0.09001000  0.42952000  1
  H  H28  1  0.33337000  0.16359000  0.40038000  1
  H  H29  1  0.18485000  0.31502000  0.43549000  1
  H  H30  1  0.11698000  0.24038000  0.46408000  1
  H  H31  1  0.44092000  0.35001000  0.17574000  1
  H  H32  1  0.35391000  0.27767000  0.04316000  1
  H  H33  1  0.16585000  0.27626000  0.10131000  1
  H  H34  1  0.25375000  0.34935000  0.23356000  1
  H  H35  1  0.41945000  0.66752000  0.46132000  1
  H  H36  1  0.47146000  0.56054000  0.39985000  1
  H  H37  1  0.24481000  0.42944000  0.25956000  1
  H  H38  1  0.19284000  0.53647000  0.32072000  1
  H  H39  1  0.10407000  0.71459000  0.45563000  1
  H  H40  1  0.81425000  0.98084000  0.19130000  1
  H  H41  1  0.78601000  0.01452000  0.09434000  1
  H  H42  1  0.92268000  0.23056000  0.25865000  1
  H  H43  1  0.95095000  0.19690000  0.35567000  1
  H  H44  1  0.83198000  0.09130000  0.94402000  1
  H  H45  1  0.85883000  0.04904000  0.03477000  1
  H  H46  1  0.89351000  0.26104000  0.18754000  1
  H  H47  1  0.79237000  0.23025000  0.15159000  1
  H  H48  1  0.81832000  0.30145000  0.10192000  1
  H  H49  1  0.78739000  0.58568000  0.09913000  1
  H  H50  1  0.81417000  0.71387000  0.20056000  1
  H  H51  1  0.95448000  0.65463000  0.35721000  1
  H  H52  1  0.92721000  0.52636000  0.25607000  1
  H  H53  1  0.92123000  0.45087000  0.20818000  1
  H  H54  1  0.90659000  0.31876000  0.12323000  1
  H  H55  1  0.76346000  0.34250000  0.93958000  1
  H  H56  1  0.77745000  0.47467000  0.02518000  1
  H  H57  1  0.94144000  0.07563000  0.65966000  1
  H  H58  1  0.15459000  0.14710000  0.01258000  1
  H  H59  1  0.32604000  0.71747000  0.01695000  1
  H  H60  1  0.94746000  0.73257000  0.97604000  1
  H  H61  1  0.87326000  0.86917000  0.23494000  1
  H  H62  1  0.66283000  0.25409000  0.59426000  1
  H  H63  1  0.82659000  0.39428000  0.59557000  1
  H  H64  1  0.46298000  0.77258000  0.09764000  1
  H  H65  1  0.40701000  0.92372000  0.27310000  1
  H  H66  1  0.27016000  0.86851000  0.19263000  1
  H  H67  1  0.53283000  0.65418000  0.60193000  1
  H  H68  1  0.58287000  0.71964000  0.55366000  1
  H  H69  1  0.81075000  0.72478000  0.68564000  1
  H  H70  1  0.76153000  0.65981000  0.73444000  1
  H  H71  1  0.73840000  0.16421000  0.56449000  1
  H  H72  1  0.64092000  0.95661000  0.41296000  1
  H  H73  1  0.50372000  0.91644000  0.32818000  1
  H  H74  1  0.56012000  0.81755000  0.14194000  1
  H  H75  1  0.69719000  0.85784000  0.22663000  1
  H  H76  1  0.73356000  0.90999000  0.57048000  1
  H  H77  1  0.66666667  0.83641000  0.59962000  1
  H  H78  1  0.81515000  0.68498000  0.56451000  1
  H  H79  1  0.88302000  0.75962000  0.53592000  1
  H  H80  1  0.55908000  0.64999000  0.82426000  1
  H  H81  1  0.64609000  0.72233000  0.95684000  1
  H  H82  1  0.83415000  0.72374000  0.89869000  1
  H  H83  1  0.74625000  0.65065000  0.76644000  1
  H  H84  1  0.58055000  0.33248000  0.53868000  1
  H  H85  1  0.52854000  0.43946000  0.60015000  1
  H  H86  1  0.75519000  0.57056000  0.74044000  1
  H  H87  1  0.80716000  0.46353000  0.67928000  1
  H  H88  1  0.89593000  0.28541000  0.54437000  1
  H  H89  1  0.18575000  0.01916000  0.80870000  1
  H  H90  1  0.21399000  0.98548000  0.90566000  1
  H  H91  1  0.07732000  0.76944000  0.74135000  1
  H  H92  1  0.04905000  0.80310000  0.64433000  1
  H  H93  1  0.16802000  0.90870000  0.05598000  1
  H  H94  1  0.14117000  0.95096000  0.96523000  1
  H  H95  1  0.10649000  0.73896000  0.81246000  1
  H  H96  1  0.20763000  0.76975000  0.84841000  1
  H  H97  1  0.18168000  0.69855000  0.89808000  1
  H  H98  1  0.21261000  0.41432000  0.90087000  1
  H  H99  1  0.18583000  0.28613000  0.79944000  1
  H  H100  1  0.04552000  0.34537000  0.64279000  1
  H  H101  1  0.07279000  0.47364000  0.74393000  1
  H  H102  1  0.07877000  0.54913000  0.79182000  1
  H  H103  1  0.09341000  0.68124000  0.87677000  1
  H  H104  1  0.23654000  0.65750000  0.06042000  1
  H  H105  1  0.22255000  0.52533000  0.97482000  1
  H  H106  1  0.05856000  0.92437000  0.34034000  1
  H  H107  1  0.84541000  0.85290000  0.98742000  1
  Ir  Ir108  1  0.52020000  0.42330000  0.34542000  1
  Ir  Ir109  1  0.87630000  0.20100000  0.90050000  1
  Ir  Ir110  1  0.47980000  0.57670000  0.65458000  1
  Ir  Ir111  1  0.12370000  0.79900000  0.09950000  1
  C  C112  1  0.90100000  0.76600000  0.33600000  1
  C  C113  1  0.28600000  0.73100000  0.41200000  1
  C  C114  1  0.19900000  0.65900000  0.41400000  1
  C  C115  1  0.70870000  0.20980000  0.89920000  1
  C  C116  1  0.65570000  0.23610000  0.92530000  1
  C  C117  1  0.58050000  0.20580000  0.88100000  1
  C  C118  1  0.55820000  0.14910000  0.81060000  1
  C  C119  1  0.61120000  0.12280000  0.78460000  1
  C  C120  1  0.68640000  0.15310000  0.82880000  1
  C  C121  1  0.88400000  0.08720000  0.27830000  1
  C  C122  1  0.83870000  0.03710000  0.20650000  1
  C  C123  1  0.82320000  0.05560000  0.15320000  1
  C  C124  1  0.85310000  0.12420000  0.17180000  1
  C  C125  1  0.89830000  0.17430000  0.24350000  1
  C  C126  1  0.91380000  0.15580000  0.29680000  1
  C  C127  1  0.18600000  0.78220000  0.44490000  1
  C  C128  1  0.35500000  0.34670000  0.32980000  1
  C  C129  1  0.40460000  0.33000000  0.37930000  1
  C  C130  1  0.37700000  0.29390000  0.40550000  1
  C  C131  1  0.30100000  0.27450000  0.38200000  1
  C  C132  1  0.25180000  0.29100000  0.33300000  1
  C  C133  1  0.27900000  0.32700000  0.30650000  1
  C  C134  1  0.24730000  0.06450000  0.63300000  1
  C  C135  1  0.20190000  0.21440000  0.98360000  1
  C  C136  1  0.19960000  0.22690000  0.92890000  1
  C  C137  1  0.14680000  0.18250000  0.85830000  1
  C  C138  1  0.09640000  0.12570000  0.84240000  1
  C  C139  1  0.09870000  0.11330000  0.89710000  1
  C  C140  1  0.15200000  0.15760000  0.96770000  1
  C  C141  1  0.23900000  0.78510000  0.43250000  1
  C  C142  1  0.82380000  0.19800000  0.01900000  1
  C  C143  1  0.83490000  0.12900000  0.00020000  1
  C  C144  1  0.84960000  0.10590000  0.05000000  1
  C  C145  1  0.85320000  0.15200000  0.11900000  1
  C  C146  1  0.84210000  0.22200000  0.13710000  1
  C  C147  1  0.82740000  0.24460000  0.08700000  1
  C  C148  1  0.32420000  0.09080000  0.67600000  1
  C  C149  1  0.37730000  0.07470000  0.64810000  1
  C  C150  1  0.45270000  0.09680000  0.69470000  1
  C  C151  1  0.47490000  0.13500000  0.76910000  1
  C  C152  1  0.42170000  0.15110000  0.79700000  1
  C  C153  1  0.34640000  0.12900000  0.75050000  1
  C  C154  1  0.12970000  0.13680000  0.46260000  1
  C  C155  1  0.85590000  0.54970000  0.17260000  1
  C  C156  1  0.82490000  0.60120000  0.15730000  1
  C  C157  1  0.83970000  0.67160000  0.21300000  1
  C  C158  1  0.88560000  0.69060000  0.28390000  1
  C  C159  1  0.91670000  0.63910000  0.29910000  1
  C  C160  1  0.90180000  0.56860000  0.24350000  1
  C  C161  1  0.25600000  0.66400000  0.40300000  1
  C  C162  1  0.18840000  0.16160000  0.44810000  1
  C  C163  1  0.24790000  0.14060000  0.43070000  1
  C  C164  1  0.28470000  0.18100000  0.41480000  1
  C  C165  1  0.26200000  0.24300000  0.41650000  1
  C  C166  1  0.20300000  0.26420000  0.43400000  1
  C  C167  1  0.16580000  0.22330000  0.44980000  1
  C  C168  1  0.35200000  0.35340000  0.21100000  1
  C  C169  1  0.37890000  0.33360000  0.15900000  1
  C  C170  1  0.33100000  0.29350000  0.08570000  1
  C  C171  1  0.25500000  0.27310000  0.06520000  1
  C  C172  1  0.22780000  0.29300000  0.11800000  1
  C  C173  1  0.27600000  0.33300000  0.19050000  1
  C  C174  1  0.13520000  0.83540000  0.46190000  1
  C  C175  1  0.30360000  0.60730000  0.39410000  1
  C  C176  1  0.38010000  0.61390000  0.41580000  1
  C  C177  1  0.40870000  0.55510000  0.38200000  1
  C  C178  1  0.36100000  0.48970000  0.32650000  1
  C  C179  1  0.28420000  0.48310000  0.30490000  1
  C  C180  1  0.25560000  0.54190000  0.33860000  1
  C  C181  1  0.84990000  0.46920000  0.12090000  1
  C  C182  1  0.88550000  0.42640000  0.14770000  1
  C  C183  1  0.87770000  0.35380000  0.10100000  1
  C  C184  1  0.83440000  0.32410000  0.02690000  1
  C  C185  1  0.79890000  0.36690000  0.00010000  1
  C  C186  1  0.80660000  0.43950000  0.04710000  1
  C  C187  1  0.15200000  0.72500000  0.44300000  1
  C  C188  1  0.90200000  0.07500000  0.33800000  1
  C  C189  1  0.09900000  0.23400000  0.66400000  1
  C  C190  1  0.71400000  0.26900000  0.58800000  1
  C  C191  1  0.80100000  0.34100000  0.58600000  1
  C  C192  1  0.29130000  0.79020000  0.10080000  1
  C  C193  1  0.34430000  0.76390000  0.07470000  1
  C  C194  1  0.41950000  0.79420000  0.11900000  1
  C  C195  1  0.44180000  0.85090000  0.18940000  1
  C  C196  1  0.38880000  0.87720000  0.21540000  1
  C  C197  1  0.31360000  0.84690000  0.17120000  1
  C  C198  1  0.11600000  0.91280000  0.72170000  1
  C  C199  1  0.16130000  0.96290000  0.79350000  1
  C  C200  1  0.17680000  0.94440000  0.84680000  1
  C  C201  1  0.14690000  0.87580000  0.82820000  1
  C  C202  1  0.10170000  0.82570000  0.75650000  1
  C  C203  1  0.08620000  0.84420000  0.70320000  1
  C  C204  1  0.81400000  0.21780000  0.55510000  1
  C  C205  1  0.64500000  0.65330000  0.67020000  1
  C  C206  1  0.59540000  0.67000000  0.62070000  1
  C  C207  1  0.62300000  0.70610000  0.59450000  1
  C  C208  1  0.69900000  0.72550000  0.61800000  1
  C  C209  1  0.74820000  0.70900000  0.66700000  1
  C  C210  1  0.72100000  0.67300000  0.69350000  1
  C  C211  1  0.75270000  0.93550000  0.36700000  1
  C  C212  1  0.79810000  0.78560000  0.01640000  1
  C  C213  1  0.80040000  0.77310000  0.07110000  1
  C  C214  1  0.85320000  0.81750000  0.14170000  1
  C  C215  1  0.90360000  0.87430000  0.15760000  1
  C  C216  1  0.90130000  0.88670000  0.10290000  1
  C  C217  1  0.84800000  0.84240000  0.03230000  1
  C  C218  1  0.76100000  0.21490000  0.56750000  1
  C  C219  1  0.17620000  0.80200000  0.98100000  1
  C  C220  1  0.16510000  0.87100000  0.99980000  1
  C  C221  1  0.15040000  0.89410000  0.95000000  1
  C  C222  1  0.14680000  0.84800000  0.88100000  1
  C  C223  1  0.15790000  0.77800000  0.86290000  1
  C  C224  1  0.17260000  0.75540000  0.91300000  1
  C  C225  1  0.67580000  0.90920000  0.32400000  1
  C  C226  1  0.62270000  0.92530000  0.35190000  1
  C  C227  1  0.54730000  0.90320000  0.30530000  1
  C  C228  1  0.52510000  0.86500000  0.23090000  1
  C  C229  1  0.57830000  0.84890000  0.20300000  1
  C  C230  1  0.65360000  0.87100000  0.24950000  1
  C  C231  1  0.87030000  0.86320000  0.53740000  1
  C  C232  1  0.14410000  0.45030000  0.82740000  1
  C  C233  1  0.17510000  0.39880000  0.84270000  1
  C  C234  1  0.16030000  0.32840000  0.78700000  1
  C  C235  1  0.11440000  0.30940000  0.71610000  1
  C  C236  1  0.08330000  0.36090000  0.70090000  1
  C  C237  1  0.09820000  0.43140000  0.75650000  1
  C  C238  1  0.74400000  0.33600000  0.59700000  1
  C  C239  1  0.81160000  0.83840000  0.55190000  1
  C  C240  1  0.75210000  0.85940000  0.56930000  1
  C  C241  1  0.71530000  0.81900000  0.58520000  1
  C  C242  1  0.73800000  0.75700000  0.58350000  1
  C  C243  1  0.79700000  0.73580000  0.56600000  1
  C  C244  1  0.83420000  0.77670000  0.55020000  1
  C  C245  1  0.64800000  0.64660000  0.78900000  1
  C  C246  1  0.62110000  0.66640000  0.84100000  1
  C  C247  1  0.66900000  0.70650000  0.91430000  1
  C  C248  1  0.74500000  0.72690000  0.93480000  1
  C  C249  1  0.77220000  0.70700000  0.88200000  1
  C  C250  1  0.72400000  0.66700000  0.80950000  1
  C  C251  1  0.86480000  0.16460000  0.53810000  1
  C  C252  1  0.69640000  0.39270000  0.60590000  1
  C  C253  1  0.61990000  0.38610000  0.58420000  1
  C  C254  1  0.59130000  0.44490000  0.61800000  1
  C  C255  1  0.63900000  0.51030000  0.67350000  1
  C  C256  1  0.71580000  0.51690000  0.69510000  1
  C  C257  1  0.74440000  0.45810000  0.66140000  1
  C  C258  1  0.15010000  0.53080000  0.87910000  1
  C  C259  1  0.11450000  0.57360000  0.85230000  1
  C  C260  1  0.12230000  0.64620000  0.89900000  1
  C  C261  1  0.16560000  0.67590000  0.97310000  1
  C  C262  1  0.20110000  0.63310000  0.99990000  1
  C  C263  1  0.19340000  0.56050000  0.95290000  1
  C  C264  1  0.84800000  0.27500000  0.55700000  1
  C  C265  1  0.09800000  0.92500000  0.66200000  1
  O  O266  1  0.99070000  0.25480000  0.99870000  1
  O  O267  1  0.98300000  0.98400000  0.58460000  1
  O  O268  1  0.09890000  0.08830000  0.55660000  1
  O  O269  1  0.08880000  0.82310000  0.47770000  1
  O  O270  1  0.93600000  0.77950000  0.39850000  1
  O  O271  1  0.22590000  0.03110000  0.57050000  1
  O  O272  1  0.88270000  0.80640000  0.31550000  1
  O  O273  1  0.08320000  0.15710000  0.48040000  1
  O  O274  1  0.98550000  0.09830000  0.58420000  1
  O  O275  1  0.15890000  0.08030000  0.46660000  1
  O  O276  1  0.88180000  0.00990000  0.31820000  1
  O  O277  1  0.87960000  0.06300000  0.63440000  1
  O  O278  1  0.10350000  0.96670000  0.55720000  1
  O  O279  1  0.93830000  0.11610000  0.39740000  1
  O  O280  1  0.06490000  0.11820000  0.73980000  1
  O  O281  1  0.16230000  0.88790000  0.46380000  1
  O  O282  1  0.20960000  0.07840000  0.66530000  1
  O  O283  1  0.00930000  0.74520000  0.00130000  1
  O  O284  1  0.01700000  0.01600000  0.41540000  1
  O  O285  1  0.90110000  0.91170000  0.44340000  1
  O  O286  1  0.91120000  0.17690000  0.52230000  1
  O  O287  1  0.06400000  0.22050000  0.60150000  1
  O  O288  1  0.77410000  0.96890000  0.42950000  1
  O  O289  1  0.11730000  0.19360000  0.68450000  1
  O  O290  1  0.91680000  0.84290000  0.51960000  1
  O  O291  1  0.01450000  0.90170000  0.41580000  1
  O  O292  1  0.84110000  0.91970000  0.53340000  1
  O  O293  1  0.11820000  0.99010000  0.68180000  1
  O  O294  1  0.12040000  0.93700000  0.36560000  1
  O  O295  1  0.89650000  0.03330000  0.44280000  1
  O  O296  1  0.06170000  0.88390000  0.60260000  1
  O  O297  1  0.93510000  0.88180000  0.26020000  1
  O  O298  1  0.83770000  0.11210000  0.53620000  1
  O  O299  1  0.79040000  0.92160000  0.33470000  1
