# generated using pymatgen
data_Zr3P2H64Rh2C92(ClO8)2
_symmetry_space_group_name_H-M   'P 1'
_cell_length_a   18.12600000
_cell_length_b   20.01500000
_cell_length_c   21.79000000
_cell_angle_alpha   109.15500000
_cell_angle_beta   103.79400000
_cell_angle_gamma   99.70000000
_symmetry_Int_Tables_number   1
_chemical_formula_structural   Zr3P2H64Rh2C92(ClO8)2
_chemical_formula_sum   'Zr6 P4 H128 Rh4 C184 Cl4 O32'
_cell_volume   6984.99028216
_cell_formula_units_Z   2
loop_
 _symmetry_equiv_pos_site_id
 _symmetry_equiv_pos_as_xyz
  1  'x, y, z'
loop_
 _atom_site_type_symbol
 _atom_site_label
 _atom_site_symmetry_multiplicity
 _atom_site_fract_x
 _atom_site_fract_y
 _atom_site_fract_z
 _atom_site_occupancy
  Zr  Zr0  1  0.92559000  0.36712000  0.94261000  1
  Zr  Zr1  1  0.99925000  0.49645000  0.11132000  1
  Zr  Zr2  1  0.12812000  0.46769000  0.01423000  1
  Zr  Zr3  1  0.07441000  0.63288000  0.05739000  1
  Zr  Zr4  1  0.00075000  0.50355000  0.88868000  1
  Zr  Zr5  1  0.87188000  0.53231000  0.98577000  1
  P  P6  1  0.42590000  0.24610000  0.50850000  1
  P  P7  1  0.82960000  0.96000000  0.30770000  1
  P  P8  1  0.57410000  0.75390000  0.49150000  1
  P  P9  1  0.17040000  0.04000000  0.69230000  1
  H  H10  1  0.97590000  0.32950000  0.19770000  1
  H  H11  1  0.95790000  0.23770000  0.24140000  1
  H  H12  1  0.80000000  0.09900000  0.05830000  1
  H  H13  1  0.81790000  0.19080000  0.01460000  1
  H  H14  1  0.26480000  0.93010000  0.24630000  1
  H  H15  1  0.17560000  0.82580000  0.15660000  1
  H  H16  1  0.99980000  0.86940000  0.23540000  1
  H  H17  1  0.08900000  0.97380000  0.32510000  1
  H  H18  1  0.71790000  0.39130000  0.59300000  1
  H  H19  1  0.97790000  0.11410000  0.23290000  1
  H  H20  1  0.74980000  0.06090000  0.14350000  1
  H  H21  1  0.72080000  0.98600000  0.20050000  1
  H  H22  1  0.95250000  0.03350000  0.28320000  1
  H  H23  1  0.27180000  0.16500000  0.49690000  1
  H  H24  1  0.17750000  0.06150000  0.41030000  1
  H  H25  1  0.34210000  0.01400000  0.31790000  1
  H  H26  1  0.43640000  0.11760000  0.40440000  1
  H  H27  1  0.83640000  0.96760000  0.43800000  1
  H  H28  1  0.83180000  0.05080000  0.54070000  1
  H  H29  1  0.80390000  0.19900000  0.45340000  1
  H  H30  1  0.80850000  0.11590000  0.35070000  1
  H  H31  1  0.81330000  0.20360000  0.72400000  1
  H  H32  1  0.92710000  0.36240000  0.67620000  1
  H  H33  1  0.89230000  0.27960000  0.56260000  1
  H  H34  1  0.77850000  0.12090000  0.61050000  1
  H  H35  1  0.74570000  0.83810000  0.17990000  1
  H  H36  1  0.61700000  0.75380000  0.13000000  1
  H  H37  1  0.54820000  0.87610000  0.29270000  1
  H  H38  1  0.68020000  0.95000000  0.34540000  1
  H  H39  1  0.44150000  0.84490000  0.20690000  1
  H  H40  1  0.31170000  0.77040000  0.16030000  1
  H  H41  1  0.39190000  0.59020000  0.09920000  1
  H  H42  1  0.52170000  0.66470000  0.14580000  1
  H  H43  1  0.86240000  0.78590000  0.43450000  1
  H  H44  1  0.14370000  0.45350000  0.28160000  1
  H  H45  1  0.21070000  0.41060000  0.36030000  1
  H  H46  1  0.35610000  0.35850000  0.24750000  1
  H  H47  1  0.28920000  0.40140000  0.16870000  1
  H  H48  1  0.49180000  0.32970000  0.43710000  1
  H  H49  1  0.43890000  0.37940000  0.35870000  1
  H  H50  1  0.22120000  0.31000000  0.37030000  1
  H  H51  1  0.27400000  0.26030000  0.44860000  1
  H  H52  1  0.40770000  0.21860000  0.62540000  1
  H  H53  1  0.36040000  0.27340000  0.71520000  1
  H  H54  1  0.31800000  0.42740000  0.63860000  1
  H  H55  1  0.36530000  0.37260000  0.54880000  1
  H  H56  1  0.33260000  0.34180000  0.80170000  1
  H  H57  1  0.26760000  0.38380000  0.87810000  1
  H  H58  1  0.16580000  0.48860000  0.76300000  1
  H  H59  1  0.23680000  0.44120000  0.68920000  1
  H  H60  1  0.00870000  0.88500000  0.47210000  1
  H  H61  1  0.05730000  0.85860000  0.35750000  1
  H  H62  1  0.77890000  0.80210000  0.31770000  1
  H  H63  1  0.95790000  0.74000000  0.27290000  1
  H  H64  1  0.83620000  0.77420000  0.22700000  1
  H  H65  1  0.88550000  0.68500000  0.33670000  1
  H  H66  1  0.97300000  0.73150000  0.38930000  1
  H  H67  1  0.65460000  0.45970000  0.68020000  1
  H  H68  1  0.51430000  0.38130000  0.64640000  1
  H  H69  1  0.53090000  0.25870000  0.67130000  1
  H  H70  1  0.67040000  0.38160000  0.75640000  1
  H  H71  1  0.74480000  0.38730000  0.72780000  1
  H  H72  1  0.67050000  0.25000000  0.68620000  1
  H  H73  1  0.70940000  0.25220000  0.58150000  1
  H  H74  1  0.02410000  0.67050000  0.80230000  1
  H  H75  1  0.04210000  0.76230000  0.75860000  1
  H  H76  1  0.20000000  0.90100000  0.94170000  1
  H  H77  1  0.18210000  0.80920000  0.98540000  1
  H  H78  1  0.73520000  0.06990000  0.75370000  1
  H  H79  1  0.82440000  0.17420000  0.84340000  1
  H  H80  1  0.00020000  0.13060000  0.76460000  1
  H  H81  1  0.91100000  0.02620000  0.67490000  1
  H  H82  1  0.28210000  0.60870000  0.40700000  1
  H  H83  1  0.02210000  0.88590000  0.76710000  1
  H  H84  1  0.25020000  0.93910000  0.85650000  1
  H  H85  1  0.27920000  0.01400000  0.79950000  1
  H  H86  1  0.04750000  0.96650000  0.71680000  1
  H  H87  1  0.72820000  0.83500000  0.50310000  1
  H  H88  1  0.82250000  0.93850000  0.58970000  1
  H  H89  1  0.65790000  0.98600000  0.68210000  1
  H  H90  1  0.56360000  0.88240000  0.59560000  1
  H  H91  1  0.16360000  0.03240000  0.56200000  1
  H  H92  1  0.16820000  0.94920000  0.45930000  1
  H  H93  1  0.19610000  0.80100000  0.54660000  1
  H  H94  1  0.19150000  0.88410000  0.64930000  1
  H  H95  1  0.18670000  0.79640000  0.27600000  1
  H  H96  1  0.07290000  0.63760000  0.32380000  1
  H  H97  1  0.10770000  0.72040000  0.43740000  1
  H  H98  1  0.22150000  0.87910000  0.38950000  1
  H  H99  1  0.25430000  0.16190000  0.82010000  1
  H  H100  1  0.38300000  0.24620000  0.87000000  1
  H  H101  1  0.45180000  0.12390000  0.70730000  1
  H  H102  1  0.31980000  0.05000000  0.65460000  1
  H  H103  1  0.55850000  0.15510000  0.79310000  1
  H  H104  1  0.68830000  0.22960000  0.83970000  1
  H  H105  1  0.60810000  0.40980000  0.90080000  1
  H  H106  1  0.47830000  0.33530000  0.85420000  1
  H  H107  1  0.13760000  0.21410000  0.56550000  1
  H  H108  1  0.85630000  0.54650000  0.71840000  1
  H  H109  1  0.78930000  0.58940000  0.63970000  1
  H  H110  1  0.64390000  0.64150000  0.75250000  1
  H  H111  1  0.71080000  0.59860000  0.83130000  1
  H  H112  1  0.50820000  0.67030000  0.56290000  1
  H  H113  1  0.56110000  0.62060000  0.64130000  1
  H  H114  1  0.77880000  0.69000000  0.62970000  1
  H  H115  1  0.72600000  0.73970000  0.55140000  1
  H  H116  1  0.59230000  0.78140000  0.37460000  1
  H  H117  1  0.63960000  0.72660000  0.28480000  1
  H  H118  1  0.68200000  0.57260000  0.36140000  1
  H  H119  1  0.63470000  0.62740000  0.45120000  1
  H  H120  1  0.66740000  0.65820000  0.19830000  1
  H  H121  1  0.73240000  0.61620000  0.12190000  1
  H  H122  1  0.83420000  0.51140000  0.23700000  1
  H  H123  1  0.76320000  0.55880000  0.31080000  1
  H  H124  1  0.99130000  0.11500000  0.52790000  1
  H  H125  1  0.94270000  0.14140000  0.64250000  1
  H  H126  1  0.22110000  0.19790000  0.68230000  1
  H  H127  1  0.04210000  0.26000000  0.72710000  1
  H  H128  1  0.16380000  0.22580000  0.77300000  1
  H  H129  1  0.11450000  0.31500000  0.66330000  1
  H  H130  1  0.02700000  0.26850000  0.61070000  1
  H  H131  1  0.34540000  0.54030000  0.31980000  1
  H  H132  1  0.48570000  0.61870000  0.35360000  1
  H  H133  1  0.46910000  0.74130000  0.32870000  1
  H  H134  1  0.32960000  0.61840000  0.24360000  1
  H  H135  1  0.25520000  0.61270000  0.27220000  1
  H  H136  1  0.32950000  0.75000000  0.31380000  1
  H  H137  1  0.29060000  0.74780000  0.41850000  1
  Rh  Rh138  1  0.92070000  0.90710000  0.34740000  1
  Rh  Rh139  1  0.55860000  0.27010000  0.54770000  1
  Rh  Rh140  1  0.07930000  0.09290000  0.65260000  1
  Rh  Rh141  1  0.44140000  0.72990000  0.45230000  1
  C  C142  1  0.02690000  0.76200000  0.13560000  1
  C  C143  1  0.91070000  0.33150000  0.07000000  1
  C  C144  1  0.16100000  0.46210000  0.88200000  1
  C  C145  1  0.89860000  0.26880000  0.10210000  1
  C  C146  1  0.94020000  0.28270000  0.16940000  1
  C  C147  1  0.92950000  0.22820000  0.19530000  1
  C  C148  1  0.87730000  0.15980000  0.15390000  1
  C  C149  1  0.83570000  0.14580000  0.08660000  1
  C  C150  1  0.84630000  0.20030000  0.06070000  1
  C  C151  1  0.18500000  0.96180000  0.29420000  1
  C  C152  1  0.21100000  0.91800000  0.24400000  1
  C  C153  1  0.15800000  0.85580000  0.19080000  1
  C  C154  1  0.07930000  0.83780000  0.18750000  1
  C  C155  1  0.05360000  0.88180000  0.23760000  1
  C  C156  1  0.10700000  0.94370000  0.29090000  1
  C  C157  1  0.68600000  0.36500000  0.61500000  1
  C  C158  1  0.86700000  0.10500000  0.18100000  1
  C  C159  1  0.92400000  0.09000000  0.22400000  1
  C  C160  1  0.79400000  0.05900000  0.17600000  1
  C  C161  1  0.77300000  0.01200000  0.20800000  1
  C  C162  1  0.90900000  0.04300000  0.25600000  1
  C  C163  1  0.83400000  0.00800000  0.24900000  1
  C  C164  1  0.36300000  0.15100000  0.45880000  1
  C  C165  1  0.28610000  0.13440000  0.46050000  1
  C  C166  1  0.23010000  0.07290000  0.40910000  1
  C  C167  1  0.25100000  0.02800000  0.35600000  1
  C  C168  1  0.32800000  0.04470000  0.35420000  1
  C  C169  1  0.38380000  0.10620000  0.40560000  1
  C  C170  1  0.82980000  0.01460000  0.44110000  1
  C  C171  1  0.82710000  0.06400000  0.50210000  1
  C  C172  1  0.81740000  0.13270000  0.50670000  1
  C  C173  1  0.81050000  0.15210000  0.45030000  1
  C  C174  1  0.81330000  0.10270000  0.38930000  1
  C  C175  1  0.82290000  0.03390000  0.38470000  1
  C  C176  1  0.82940000  0.21910000  0.69120000  1
  C  C177  1  0.87350000  0.29080000  0.71070000  1
  C  C178  1  0.89690000  0.31340000  0.66280000  1
  C  C179  1  0.87620000  0.26420000  0.59540000  1
  C  C180  1  0.83210000  0.19250000  0.57590000  1
  C  C181  1  0.80870000  0.16990000  0.62380000  1
  C  C182  1  0.90500000  0.34000000  0.78500000  1
  C  C183  1  0.72280000  0.90200000  0.26810000  1
  C  C184  1  0.70700000  0.84300000  0.20200000  1
  C  C185  1  0.63100000  0.79370000  0.17280000  1
  C  C186  1  0.57600000  0.80520000  0.20890000  1
  C  C187  1  0.58900000  0.86700000  0.27300000  1
  C  C188  1  0.66600000  0.91200000  0.30200000  1
  C  C189  1  0.43140000  0.79320000  0.18500000  1
  C  C190  1  0.35430000  0.74890000  0.15740000  1
  C  C191  1  0.33960000  0.67330000  0.12540000  1
  C  C192  1  0.40200000  0.64190000  0.12110000  1
  C  C193  1  0.47910000  0.68620000  0.14880000  1
  C  C194  1  0.49380000  0.76180000  0.18070000  1
  C  C195  1  0.88800000  0.79300000  0.40000000  1
  C  C196  1  0.25100000  0.62440000  0.08890000  1
  C  C197  1  0.16200000  0.44970000  0.16080000  1
  C  C198  1  0.21010000  0.43140000  0.21780000  1
  C  C199  1  0.18680000  0.43420000  0.27470000  1
  C  C200  1  0.22660000  0.40870000  0.32150000  1
  C  C201  1  0.28970000  0.38050000  0.31130000  1
  C  C202  1  0.31300000  0.37780000  0.25440000  1
  C  C203  1  0.27320000  0.40320000  0.20760000  1
  C  C204  1  0.38790000  0.29040000  0.45020000  1
  C  C205  1  0.43680000  0.32570000  0.42350000  1
  C  C206  1  0.40540000  0.35520000  0.37700000  1
  C  C207  1  0.32500000  0.34930000  0.35710000  1
  C  C208  1  0.27610000  0.31400000  0.38380000  1
  C  C209  1  0.30750000  0.28450000  0.43040000  1
  C  C210  1  0.39100000  0.29050000  0.57870000  1
  C  C211  1  0.38950000  0.26100000  0.62810000  1
  C  C212  1  0.36140000  0.29350000  0.68140000  1
  C  C213  1  0.33470000  0.35550000  0.68540000  1
  C  C214  1  0.33620000  0.38500000  0.63600000  1
  C  C215  1  0.36430000  0.35240000  0.58260000  1
  C  C216  1  0.29200000  0.38600000  0.73000000  1
  C  C217  1  0.29860000  0.37110000  0.79250000  1
  C  C218  1  0.25950000  0.39570000  0.83860000  1
  C  C219  1  0.20740000  0.43850000  0.82750000  1
  C  C220  1  0.19800000  0.45820000  0.77200000  1
  C  C221  1  0.24400000  0.42800000  0.72800000  1
  C  C222  1  0.97400000  0.85600000  0.42400000  1
  C  C223  1  0.00200000  0.84500000  0.35700000  1
  C  C224  1  0.83600000  0.80500000  0.32700000  1
  C  C225  1  0.93800000  0.77100000  0.30800000  1
  C  C226  1  0.86600000  0.79210000  0.27700000  1
  C  C227  1  0.92300000  0.73400000  0.36000000  1
  C  C228  1  0.64400000  0.40500000  0.66400000  1
  C  C229  1  0.56000000  0.36000000  0.64200000  1
  C  C230  1  0.56900000  0.28700000  0.65700000  1
  C  C231  1  0.68700000  0.37000000  0.71500000  1
  C  C232  1  0.65300000  0.28500000  0.66600000  1
  C  C233  1  0.67500000  0.28200000  0.60000000  1
  C  C234  1  0.97310000  0.23800000  0.86440000  1
  C  C235  1  0.08930000  0.66850000  0.93000000  1
  C  C236  1  0.83900000  0.53790000  0.11800000  1
  C  C237  1  0.10140000  0.73120000  0.89790000  1
  C  C238  1  0.05980000  0.71730000  0.83060000  1
  C  C239  1  0.07050000  0.77180000  0.80470000  1
  C  C240  1  0.12270000  0.84020000  0.84610000  1
  C  C241  1  0.16430000  0.85420000  0.91340000  1
  C  C242  1  0.15370000  0.79970000  0.93930000  1
  C  C243  1  0.81500000  0.03820000  0.70580000  1
  C  C244  1  0.78900000  0.08200000  0.75600000  1
  C  C245  1  0.84200000  0.14420000  0.80920000  1
  C  C246  1  0.92070000  0.16220000  0.81250000  1
  C  C247  1  0.94640000  0.11820000  0.76240000  1
  C  C248  1  0.89300000  0.05630000  0.70910000  1
  C  C249  1  0.31400000  0.63500000  0.38500000  1
  C  C250  1  0.13300000  0.89500000  0.81900000  1
  C  C251  1  0.07600000  0.91000000  0.77600000  1
  C  C252  1  0.20600000  0.94100000  0.82400000  1
  C  C253  1  0.22700000  0.98800000  0.79200000  1
  C  C254  1  0.09100000  0.95700000  0.74400000  1
  C  C255  1  0.16600000  0.99200000  0.75100000  1
  C  C256  1  0.63700000  0.84900000  0.54120000  1
  C  C257  1  0.71390000  0.86560000  0.53950000  1
  C  C258  1  0.76990000  0.92710000  0.59090000  1
  C  C259  1  0.74900000  0.97200000  0.64400000  1
  C  C260  1  0.67200000  0.95530000  0.64580000  1
  C  C261  1  0.61620000  0.89380000  0.59440000  1
  C  C262  1  0.17020000  0.98540000  0.55890000  1
  C  C263  1  0.17290000  0.93600000  0.49790000  1
  C  C264  1  0.18260000  0.86730000  0.49330000  1
  C  C265  1  0.18950000  0.84790000  0.54970000  1
  C  C266  1  0.18670000  0.89730000  0.61070000  1
  C  C267  1  0.17710000  0.96610000  0.61530000  1
  C  C268  1  0.17060000  0.78090000  0.30880000  1
  C  C269  1  0.12650000  0.70920000  0.28930000  1
  C  C270  1  0.10310000  0.68660000  0.33720000  1
  C  C271  1  0.12380000  0.73580000  0.40460000  1
  C  C272  1  0.16790000  0.80750000  0.42410000  1
  C  C273  1  0.19130000  0.83010000  0.37620000  1
  C  C274  1  0.09500000  0.66000000  0.21500000  1
  C  C275  1  0.27720000  0.09800000  0.73190000  1
  C  C276  1  0.29300000  0.15700000  0.79800000  1
  C  C277  1  0.36900000  0.20630000  0.82720000  1
  C  C278  1  0.42400000  0.19480000  0.79110000  1
  C  C279  1  0.41100000  0.13300000  0.72700000  1
  C  C280  1  0.33400000  0.08800000  0.69800000  1
  C  C281  1  0.56860000  0.20680000  0.81500000  1
  C  C282  1  0.64570000  0.25110000  0.84260000  1
  C  C283  1  0.66040000  0.32670000  0.87460000  1
  C  C284  1  0.59800000  0.35810000  0.87890000  1
  C  C285  1  0.52090000  0.31380000  0.85120000  1
  C  C286  1  0.50620000  0.23820000  0.81930000  1
  C  C287  1  0.11200000  0.20700000  0.60000000  1
  C  C288  1  0.74900000  0.37560000  0.91110000  1
  C  C289  1  0.83800000  0.55030000  0.83920000  1
  C  C290  1  0.78990000  0.56860000  0.78220000  1
  C  C291  1  0.81320000  0.56580000  0.72530000  1
  C  C292  1  0.77340000  0.59130000  0.67850000  1
  C  C293  1  0.71030000  0.61950000  0.68870000  1
  C  C294  1  0.68700000  0.62220000  0.74560000  1
  C  C295  1  0.72680000  0.59680000  0.79240000  1
  C  C296  1  0.61210000  0.70960000  0.54980000  1
  C  C297  1  0.56320000  0.67430000  0.57650000  1
  C  C298  1  0.59460000  0.64480000  0.62300000  1
  C  C299  1  0.67500000  0.65070000  0.64290000  1
  C  C300  1  0.72390000  0.68600000  0.61620000  1
  C  C301  1  0.69250000  0.71550000  0.56960000  1
  C  C302  1  0.60900000  0.70950000  0.42130000  1
  C  C303  1  0.61050000  0.73900000  0.37190000  1
  C  C304  1  0.63860000  0.70650000  0.31860000  1
  C  C305  1  0.66530000  0.64450000  0.31460000  1
  C  C306  1  0.66380000  0.61500000  0.36400000  1
  C  C307  1  0.63570000  0.64760000  0.41740000  1
  C  C308  1  0.70800000  0.61400000  0.27000000  1
  C  C309  1  0.70140000  0.62890000  0.20750000  1
  C  C310  1  0.74050000  0.60430000  0.16140000  1
  C  C311  1  0.79260000  0.56150000  0.17250000  1
  C  C312  1  0.80200000  0.54180000  0.22800000  1
  C  C313  1  0.75600000  0.57200000  0.27200000  1
  C  C314  1  0.02600000  0.14400000  0.57600000  1
  C  C315  1  0.99800000  0.15500000  0.64300000  1
  C  C316  1  0.16400000  0.19500000  0.67300000  1
  C  C317  1  0.06200000  0.22900000  0.69200000  1
  C  C318  1  0.13400000  0.20790000  0.72300000  1
  C  C319  1  0.07700000  0.26600000  0.64000000  1
  C  C320  1  0.35600000  0.59500000  0.33600000  1
  C  C321  1  0.44000000  0.64000000  0.35800000  1
  C  C322  1  0.43100000  0.71300000  0.34300000  1
  C  C323  1  0.31300000  0.63000000  0.28500000  1
  C  C324  1  0.34700000  0.71500000  0.33400000  1
  C  C325  1  0.32500000  0.71800000  0.40000000  1
  Cl  Cl326  1  0.58320000  0.22910000  0.44330000  1
  Cl  Cl327  1  0.01730000  0.02160000  0.41300000  1
  Cl  Cl328  1  0.41680000  0.77090000  0.55670000  1
  Cl  Cl329  1  0.98270000  0.97840000  0.58700000  1
  O  O330  1  0.04380000  0.73200000  0.08030000  1
  O  O331  1  0.94990000  0.74780000  0.12630000  1
  O  O332  1  0.02730000  0.41680000  0.92250000  1
  O  O333  1  0.90120000  0.44720000  0.02160000  1
  O  O334  1  0.02770000  0.41220000  0.03590000  1
  O  O335  1  0.10060000  0.54420000  0.09080000  1
  O  O336  1  0.24310000  0.55430000  0.06390000  1
  O  O337  1  0.20400000  0.66480000  0.09400000  1
  O  O338  1  0.18010000  0.44980000  0.10740000  1
  O  O339  1  0.09850000  0.46750000  0.17180000  1
  O  O340  1  0.18250000  0.45220000  0.92970000  1
  O  O341  1  0.10180000  0.47560000  0.84880000  1
  O  O342  1  0.88800000  0.31460000  0.82430000  1
  O  O343  1  0.94270000  0.40260000  0.79020000  1
  O  O344  1  0.94340000  0.39290000  0.12220000  1
  O  O345  1  0.89070000  0.31000000  0.01040000  1
  O  O346  1  0.95620000  0.26800000  0.91970000  1
  O  O347  1  0.05010000  0.25220000  0.87370000  1
  O  O348  1  0.97270000  0.58320000  0.07750000  1
  O  O349  1  0.09880000  0.55280000  0.97840000  1
  O  O350  1  0.97230000  0.58780000  0.96410000  1
  O  O351  1  0.89940000  0.45580000  0.90920000  1
  O  O352  1  0.75690000  0.44570000  0.93610000  1
  O  O353  1  0.79600000  0.33520000  0.90600000  1
  O  O354  1  0.81990000  0.55020000  0.89260000  1
  O  O355  1  0.90150000  0.53250000  0.82820000  1
  O  O356  1  0.81750000  0.54780000  0.07030000  1
  O  O357  1  0.89820000  0.52440000  0.15120000  1
  O  O358  1  0.11200000  0.68540000  0.17570000  1
  O  O359  1  0.05730000  0.59740000  0.20980000  1
  O  O360  1  0.05660000  0.60710000  0.87780000  1
  O  O361  1  0.10930000  0.69000000  0.98960000  1
