# generated using pymatgen
data_Zr3H36(C9O2)8
_symmetry_space_group_name_H-M   'P 1'
_cell_length_a   28.17466970
_cell_length_b   28.17466970
_cell_length_c   28.17466970
_cell_angle_alpha   60.00000000
_cell_angle_beta   60.00000000
_cell_angle_gamma   60.00000000
_symmetry_Int_Tables_number   1
_chemical_formula_structural   Zr3H36(C9O2)8
_chemical_formula_sum   'Zr12 H144 C288 O64'
_cell_volume   15814.71981903
_cell_formula_units_Z   4
loop_
 _symmetry_equiv_pos_site_id
 _symmetry_equiv_pos_as_xyz
  1  'x, y, z'
loop_
 _atom_site_type_symbol
 _atom_site_label
 _atom_site_symmetry_multiplicity
 _atom_site_fract_x
 _atom_site_fract_y
 _atom_site_fract_z
 _atom_site_occupancy
  C  C0  1  0.34403000  0.13005000  0.42751000  1
  C  C1  1  0.34908000  0.07574000  0.43272000  1
  C  C2  1  0.44780000  0.86760000  0.36940000  1
  C  C3  1  0.37839000  0.21393000  0.37839000  1
  C  C4  1  0.38316000  0.15658000  0.38316000  1
  C  C5  1  0.39380000  0.04812000  0.39380000  1
  C  C6  1  0.39900000  0.99292000  0.39900000  1
  C  C7  1  0.40310000  0.94692000  0.40310000  1
  C  C8  1  0.40510000  0.89468000  0.40510000  1
  C  C9  1  0.57249000  0.65597000  0.40159000  1
  C  C10  1  0.56728000  0.65092000  0.35754000  1
  C  C11  1  0.63060000  0.55220000  0.18480000  1
  C  C12  1  0.62161000  0.62161000  0.47071000  1
  C  C13  1  0.61684000  0.61684000  0.42290000  1
  C  C14  1  0.60620000  0.60620000  0.33572000  1
  C  C15  1  0.60100000  0.60100000  0.29092000  1
  C  C16  1  0.59690000  0.59690000  0.25312000  1
  C  C17  1  0.59490000  0.59490000  0.20488000  1
  C  C18  1  0.59841000  0.42751000  0.13005000  1
  C  C19  1  0.64246000  0.43272000  0.07574000  1
  C  C20  1  0.81520000  0.36940000  0.86760000  1
  C  C21  1  0.52929000  0.37839000  0.21393000  1
  C  C22  1  0.57710000  0.38316000  0.15658000  1
  C  C23  1  0.66428000  0.39380000  0.04812000  1
  C  C24  1  0.70908000  0.39900000  0.99292000  1
  C  C25  1  0.74688000  0.40310000  0.94692000  1
  C  C26  1  0.79512000  0.40510000  0.89468000  1
  C  C27  1  0.86995000  0.40159000  0.65597000  1
  C  C28  1  0.92426000  0.35754000  0.65092000  1
  C  C29  1  0.13240000  0.18480000  0.55220000  1
  C  C30  1  0.78607000  0.47071000  0.62161000  1
  C  C31  1  0.84342000  0.42290000  0.61684000  1
  C  C32  1  0.95188000  0.33572000  0.60620000  1
  C  C33  1  0.00708000  0.29092000  0.60100000  1
  C  C34  1  0.05308000  0.25312000  0.59690000  1
  C  C35  1  0.10532000  0.20488000  0.59490000  1
  C  C36  1  0.13005000  0.34403000  0.59841000  1
  C  C37  1  0.07574000  0.34908000  0.64246000  1
  C  C38  1  0.86760000  0.44780000  0.81520000  1
  C  C39  1  0.21393000  0.37839000  0.52929000  1
  C  C40  1  0.15658000  0.38316000  0.57710000  1
  C  C41  1  0.04812000  0.39380000  0.66428000  1
  C  C42  1  0.99292000  0.39900000  0.70908000  1
  C  C43  1  0.94692000  0.40310000  0.74688000  1
  C  C44  1  0.89468000  0.40510000  0.79512000  1
  C  C45  1  0.40159000  0.86995000  0.57249000  1
  C  C46  1  0.35754000  0.92426000  0.56728000  1
  C  C47  1  0.18480000  0.13240000  0.63060000  1
  C  C48  1  0.47071000  0.78607000  0.62161000  1
  C  C49  1  0.42290000  0.84342000  0.61684000  1
  C  C50  1  0.33572000  0.95188000  0.60620000  1
  C  C51  1  0.29092000  0.00708000  0.60100000  1
  C  C52  1  0.25312000  0.05308000  0.59690000  1
  C  C53  1  0.20488000  0.10532000  0.59490000  1
  C  C54  1  0.42751000  0.59841000  0.34403000  1
  C  C55  1  0.43272000  0.64246000  0.34908000  1
  C  C56  1  0.36940000  0.81520000  0.44780000  1
  C  C57  1  0.37839000  0.52929000  0.37839000  1
  C  C58  1  0.38316000  0.57710000  0.38316000  1
  C  C59  1  0.39380000  0.66428000  0.39380000  1
  C  C60  1  0.39900000  0.70908000  0.39900000  1
  C  C61  1  0.40310000  0.74688000  0.40310000  1
  C  C62  1  0.40510000  0.79512000  0.40510000  1
  C  C63  1  0.65597000  0.57249000  0.86995000  1
  C  C64  1  0.65092000  0.56728000  0.92426000  1
  C  C65  1  0.55220000  0.63060000  0.13240000  1
  C  C66  1  0.62161000  0.62161000  0.78607000  1
  C  C67  1  0.61684000  0.61684000  0.84342000  1
  C  C68  1  0.60620000  0.60620000  0.95188000  1
  C  C69  1  0.60100000  0.60100000  0.00708000  1
  C  C70  1  0.59690000  0.59690000  0.05308000  1
  C  C71  1  0.59490000  0.59490000  0.10532000  1
  C  C72  1  0.13005000  0.42751000  0.34403000  1
  C  C73  1  0.07574000  0.43272000  0.34908000  1
  C  C74  1  0.86760000  0.36940000  0.44780000  1
  C  C75  1  0.21393000  0.37839000  0.37839000  1
  C  C76  1  0.15658000  0.38316000  0.38316000  1
  C  C77  1  0.04812000  0.39380000  0.39380000  1
  C  C78  1  0.99292000  0.39900000  0.39900000  1
  C  C79  1  0.94692000  0.40310000  0.40310000  1
  C  C80  1  0.89468000  0.40510000  0.40510000  1
  C  C81  1  0.65597000  0.86995000  0.40159000  1
  C  C82  1  0.65092000  0.92426000  0.35754000  1
  C  C83  1  0.55220000  0.13240000  0.18480000  1
  C  C84  1  0.62161000  0.78607000  0.47071000  1
  C  C85  1  0.61684000  0.84342000  0.42290000  1
  C  C86  1  0.60620000  0.95188000  0.33572000  1
  C  C87  1  0.60100000  0.00708000  0.29092000  1
  C  C88  1  0.59690000  0.05308000  0.25312000  1
  C  C89  1  0.59490000  0.10532000  0.20488000  1
  C  C90  1  0.59841000  0.34403000  0.42751000  1
  C  C91  1  0.64246000  0.34908000  0.43272000  1
  C  C92  1  0.81520000  0.44780000  0.36940000  1
  C  C93  1  0.52929000  0.37839000  0.37839000  1
  C  C94  1  0.57710000  0.38316000  0.38316000  1
  C  C95  1  0.66428000  0.39380000  0.39380000  1
  C  C96  1  0.70908000  0.39900000  0.39900000  1
  C  C97  1  0.74688000  0.40310000  0.40310000  1
  C  C98  1  0.79512000  0.40510000  0.40510000  1
  C  C99  1  0.57249000  0.40159000  0.86995000  1
  C  C100  1  0.56728000  0.35754000  0.92426000  1
  C  C101  1  0.63060000  0.18480000  0.13240000  1
  C  C102  1  0.62161000  0.47071000  0.78607000  1
  C  C103  1  0.61684000  0.42290000  0.84342000  1
  C  C104  1  0.60620000  0.33572000  0.95188000  1
  C  C105  1  0.60100000  0.29092000  0.00708000  1
  C  C106  1  0.59690000  0.25312000  0.05308000  1
  C  C107  1  0.59490000  0.20488000  0.10532000  1
  C  C108  1  0.42751000  0.13005000  0.59841000  1
  C  C109  1  0.43272000  0.07574000  0.64246000  1
  C  C110  1  0.36940000  0.86760000  0.81520000  1
  C  C111  1  0.37839000  0.21393000  0.52929000  1
  C  C112  1  0.38316000  0.15658000  0.57710000  1
  C  C113  1  0.39380000  0.04812000  0.66428000  1
  C  C114  1  0.39900000  0.99292000  0.70908000  1
  C  C115  1  0.40310000  0.94692000  0.74688000  1
  C  C116  1  0.40510000  0.89468000  0.79512000  1
  C  C117  1  0.40159000  0.57249000  0.65597000  1
  C  C118  1  0.35754000  0.56728000  0.65092000  1
  C  C119  1  0.18480000  0.63060000  0.55220000  1
  C  C120  1  0.47071000  0.62161000  0.62161000  1
  C  C121  1  0.42290000  0.61684000  0.61684000  1
  C  C122  1  0.33572000  0.60620000  0.60620000  1
  C  C123  1  0.29092000  0.60100000  0.60100000  1
  C  C124  1  0.25312000  0.59690000  0.59690000  1
  C  C125  1  0.20488000  0.59490000  0.59490000  1
  C  C126  1  0.34403000  0.59841000  0.13005000  1
  C  C127  1  0.34908000  0.64246000  0.07574000  1
  C  C128  1  0.44780000  0.81520000  0.86760000  1
  C  C129  1  0.37839000  0.52929000  0.21393000  1
  C  C130  1  0.38316000  0.57710000  0.15658000  1
  C  C131  1  0.39380000  0.66428000  0.04812000  1
  C  C132  1  0.39900000  0.70908000  0.99292000  1
  C  C133  1  0.40310000  0.74688000  0.94692000  1
  C  C134  1  0.40510000  0.79512000  0.89468000  1
  C  C135  1  0.86995000  0.65597000  0.57249000  1
  C  C136  1  0.92426000  0.65092000  0.56728000  1
  C  C137  1  0.13240000  0.55220000  0.63060000  1
  C  C138  1  0.78607000  0.62161000  0.62161000  1
  C  C139  1  0.84342000  0.61684000  0.61684000  1
  C  C140  1  0.95188000  0.60620000  0.60620000  1
  C  C141  1  0.00708000  0.60100000  0.60100000  1
  C  C142  1  0.05308000  0.59690000  0.59690000  1
  C  C143  1  0.10532000  0.59490000  0.59490000  1
  C  C144  1  0.42751000  0.34403000  0.13005000  1
  C  C145  1  0.43272000  0.34908000  0.07574000  1
  C  C146  1  0.36940000  0.44780000  0.86760000  1
  C  C147  1  0.37839000  0.37839000  0.21393000  1
  C  C148  1  0.38316000  0.38316000  0.15658000  1
  C  C149  1  0.39380000  0.39380000  0.04812000  1
  C  C150  1  0.39900000  0.39900000  0.99292000  1
  C  C151  1  0.40310000  0.40310000  0.94692000  1
  C  C152  1  0.40510000  0.40510000  0.89468000  1
  C  C153  1  0.34403000  0.42751000  0.59841000  1
  C  C154  1  0.34908000  0.43272000  0.64246000  1
  C  C155  1  0.44780000  0.36940000  0.81520000  1
  C  C156  1  0.37839000  0.37839000  0.52929000  1
  C  C157  1  0.38316000  0.38316000  0.57710000  1
  C  C158  1  0.39380000  0.39380000  0.66428000  1
  C  C159  1  0.39900000  0.39900000  0.70908000  1
  C  C160  1  0.40310000  0.40310000  0.74688000  1
  C  C161  1  0.40510000  0.40510000  0.79512000  1
  C  C162  1  0.40159000  0.65597000  0.86995000  1
  C  C163  1  0.35754000  0.65092000  0.92426000  1
  C  C164  1  0.18480000  0.55220000  0.13240000  1
  C  C165  1  0.47071000  0.62161000  0.78607000  1
  C  C166  1  0.42290000  0.61684000  0.84342000  1
  C  C167  1  0.33572000  0.60620000  0.95188000  1
  C  C168  1  0.29092000  0.60100000  0.00708000  1
  C  C169  1  0.25312000  0.59690000  0.05308000  1
  C  C170  1  0.20488000  0.59490000  0.10532000  1
  C  C171  1  0.13005000  0.59841000  0.42751000  1
  C  C172  1  0.07574000  0.64246000  0.43272000  1
  C  C173  1  0.86760000  0.81520000  0.36940000  1
  C  C174  1  0.21393000  0.52929000  0.37839000  1
  C  C175  1  0.15658000  0.57710000  0.38316000  1
  C  C176  1  0.04812000  0.66428000  0.39380000  1
  C  C177  1  0.99292000  0.70908000  0.39900000  1
  C  C178  1  0.94692000  0.74688000  0.40310000  1
  C  C179  1  0.89468000  0.79512000  0.40510000  1
  C  C180  1  0.57249000  0.86995000  0.65597000  1
  C  C181  1  0.56728000  0.92426000  0.65092000  1
  C  C182  1  0.63060000  0.13240000  0.55220000  1
  C  C183  1  0.62161000  0.78607000  0.62161000  1
  C  C184  1  0.61684000  0.84342000  0.61684000  1
  C  C185  1  0.60620000  0.95188000  0.60620000  1
  C  C186  1  0.60100000  0.00708000  0.60100000  1
  C  C187  1  0.59690000  0.05308000  0.59690000  1
  C  C188  1  0.59490000  0.10532000  0.59490000  1
  C  C189  1  0.59841000  0.13005000  0.34403000  1
  C  C190  1  0.64246000  0.07574000  0.34908000  1
  C  C191  1  0.81520000  0.86760000  0.44780000  1
  C  C192  1  0.52929000  0.21393000  0.37839000  1
  C  C193  1  0.57710000  0.15658000  0.38316000  1
  C  C194  1  0.66428000  0.04812000  0.39380000  1
  C  C195  1  0.70908000  0.99292000  0.39900000  1
  C  C196  1  0.74688000  0.94692000  0.40310000  1
  C  C197  1  0.79512000  0.89468000  0.40510000  1
  C  C198  1  0.65597000  0.40159000  0.57249000  1
  C  C199  1  0.65092000  0.35754000  0.56728000  1
  C  C200  1  0.55220000  0.18480000  0.63060000  1
  C  C201  1  0.62161000  0.47071000  0.62161000  1
  C  C202  1  0.61684000  0.42290000  0.61684000  1
  C  C203  1  0.60620000  0.33572000  0.60620000  1
  C  C204  1  0.60100000  0.29092000  0.60100000  1
  C  C205  1  0.59690000  0.25312000  0.59690000  1
  C  C206  1  0.59490000  0.20488000  0.59490000  1
  C  C207  1  0.86995000  0.57249000  0.40159000  1
  C  C208  1  0.92426000  0.56728000  0.35754000  1
  C  C209  1  0.13240000  0.63060000  0.18480000  1
  C  C210  1  0.78607000  0.62161000  0.47071000  1
  C  C211  1  0.84342000  0.61684000  0.42290000  1
  C  C212  1  0.95188000  0.60620000  0.33572000  1
  C  C213  1  0.00708000  0.60100000  0.29092000  1
  C  C214  1  0.05308000  0.59690000  0.25312000  1
  C  C215  1  0.10532000  0.59490000  0.20488000  1
  C  C216  1  0.65597000  0.86995000  0.57249000  1
  C  C217  1  0.65092000  0.92426000  0.56728000  1
  C  C218  1  0.55220000  0.13240000  0.63060000  1
  C  C219  1  0.42751000  0.34403000  0.59841000  1
  C  C220  1  0.43272000  0.34908000  0.64246000  1
  C  C221  1  0.36940000  0.44780000  0.81520000  1
  C  C222  1  0.40159000  0.57249000  0.86995000  1
  C  C223  1  0.35754000  0.56728000  0.92426000  1
  C  C224  1  0.18480000  0.63060000  0.13240000  1
  C  C225  1  0.13005000  0.59841000  0.34403000  1
  C  C226  1  0.07574000  0.64246000  0.34908000  1
  C  C227  1  0.86760000  0.81520000  0.44780000  1
  C  C228  1  0.86995000  0.65597000  0.40159000  1
  C  C229  1  0.92426000  0.65092000  0.35754000  1
  C  C230  1  0.13240000  0.55220000  0.18480000  1
  C  C231  1  0.59841000  0.13005000  0.42751000  1
  C  C232  1  0.64246000  0.07574000  0.43272000  1
  C  C233  1  0.81520000  0.86760000  0.36940000  1
  C  C234  1  0.57249000  0.40159000  0.65597000  1
  C  C235  1  0.56728000  0.35754000  0.65092000  1
  C  C236  1  0.63060000  0.18480000  0.55220000  1
  C  C237  1  0.34403000  0.42751000  0.13005000  1
  C  C238  1  0.34908000  0.43272000  0.07574000  1
  C  C239  1  0.44780000  0.36940000  0.86760000  1
  C  C240  1  0.86995000  0.57249000  0.65597000  1
  C  C241  1  0.92426000  0.56728000  0.65092000  1
  C  C242  1  0.13240000  0.63060000  0.55220000  1
  C  C243  1  0.34403000  0.13005000  0.59841000  1
  C  C244  1  0.34908000  0.07574000  0.64246000  1
  C  C245  1  0.44780000  0.86760000  0.81520000  1
  C  C246  1  0.40159000  0.65597000  0.57249000  1
  C  C247  1  0.35754000  0.65092000  0.56728000  1
  C  C248  1  0.18480000  0.55220000  0.63060000  1
  C  C249  1  0.42751000  0.59841000  0.13005000  1
  C  C250  1  0.43272000  0.64246000  0.07574000  1
  C  C251  1  0.36940000  0.81520000  0.86760000  1
  C  C252  1  0.57249000  0.86995000  0.40159000  1
  C  C253  1  0.56728000  0.92426000  0.35754000  1
  C  C254  1  0.63060000  0.13240000  0.18480000  1
  C  C255  1  0.59841000  0.42751000  0.34403000  1
  C  C256  1  0.64246000  0.43272000  0.34908000  1
  C  C257  1  0.81520000  0.36940000  0.44780000  1
  C  C258  1  0.65597000  0.40159000  0.86995000  1
  C  C259  1  0.65092000  0.35754000  0.92426000  1
  C  C260  1  0.55220000  0.18480000  0.13240000  1
  C  C261  1  0.13005000  0.34403000  0.42751000  1
  C  C262  1  0.07574000  0.34908000  0.43272000  1
  C  C263  1  0.86760000  0.44780000  0.36940000  1
  C  C264  1  0.57249000  0.65597000  0.86995000  1
  C  C265  1  0.56728000  0.65092000  0.92426000  1
  C  C266  1  0.63060000  0.55220000  0.13240000  1
  C  C267  1  0.65597000  0.57249000  0.40159000  1
  C  C268  1  0.65092000  0.56728000  0.35754000  1
  C  C269  1  0.55220000  0.63060000  0.18480000  1
  C  C270  1  0.59841000  0.34403000  0.13005000  1
  C  C271  1  0.64246000  0.34908000  0.07574000  1
  C  C272  1  0.81520000  0.44780000  0.86760000  1
  C  C273  1  0.86995000  0.40159000  0.57249000  1
  C  C274  1  0.92426000  0.35754000  0.56728000  1
  C  C275  1  0.13240000  0.18480000  0.63060000  1
  C  C276  1  0.42751000  0.13005000  0.34403000  1
  C  C277  1  0.43272000  0.07574000  0.34908000  1
  C  C278  1  0.36940000  0.86760000  0.44780000  1
  C  C279  1  0.40159000  0.86995000  0.65597000  1
  C  C280  1  0.35754000  0.92426000  0.65092000  1
  C  C281  1  0.18480000  0.13240000  0.55220000  1
  C  C282  1  0.34403000  0.59841000  0.42751000  1
  C  C283  1  0.34908000  0.64246000  0.43272000  1
  C  C284  1  0.44780000  0.81520000  0.36940000  1
  C  C285  1  0.13005000  0.42751000  0.59841000  1
  C  C286  1  0.07574000  0.43272000  0.64246000  1
  C  C287  1  0.86760000  0.36940000  0.81520000  1
  H  H288  1  0.31320000  0.14840000  0.45500000  1
  H  H289  1  0.32120000  0.05780000  0.46360000  1
  H  H290  1  0.51402000  0.20766000  0.11580000  1
  H  H291  1  0.54500000  0.68680000  0.41660000  1
  H  H292  1  0.53640000  0.67880000  0.34260000  1
  H  H293  1  0.88420000  0.48598000  0.33748000  1
  H  H294  1  0.58340000  0.45500000  0.14840000  1
  H  H295  1  0.65740000  0.46360000  0.05780000  1
  H  H296  1  0.66252000  0.11580000  0.20766000  1
  H  H297  1  0.85160000  0.41660000  0.68680000  1
  H  H298  1  0.94220000  0.34260000  0.67880000  1
  H  H299  1  0.79234000  0.33748000  0.48598000  1
  H  H300  1  0.14840000  0.31320000  0.58340000  1
  H  H301  1  0.05780000  0.32120000  0.65740000  1
  H  H302  1  0.20766000  0.51402000  0.66252000  1
  H  H303  1  0.41660000  0.85160000  0.54500000  1
  H  H304  1  0.34260000  0.94220000  0.53640000  1
  H  H305  1  0.33748000  0.79234000  0.88420000  1
  H  H306  1  0.45500000  0.58340000  0.31320000  1
  H  H307  1  0.46360000  0.65740000  0.32120000  1
  H  H308  1  0.11580000  0.66252000  0.51402000  1
  H  H309  1  0.68680000  0.54500000  0.85160000  1
  H  H310  1  0.67880000  0.53640000  0.94220000  1
  H  H311  1  0.48598000  0.88420000  0.79234000  1
  H  H312  1  0.14840000  0.45500000  0.31320000  1
  H  H313  1  0.05780000  0.46360000  0.32120000  1
  H  H314  1  0.20766000  0.11580000  0.51402000  1
  H  H315  1  0.68680000  0.85160000  0.41660000  1
  H  H316  1  0.67880000  0.94220000  0.34260000  1
  H  H317  1  0.48598000  0.79234000  0.33748000  1
  H  H318  1  0.58340000  0.31320000  0.45500000  1
  H  H319  1  0.65740000  0.32120000  0.46360000  1
  H  H320  1  0.66252000  0.51402000  0.11580000  1
  H  H321  1  0.54500000  0.41660000  0.85160000  1
  H  H322  1  0.53640000  0.34260000  0.94220000  1
  H  H323  1  0.88420000  0.33748000  0.79234000  1
  H  H324  1  0.45500000  0.14840000  0.58340000  1
  H  H325  1  0.46360000  0.05780000  0.65740000  1
  H  H326  1  0.11580000  0.20766000  0.66252000  1
  H  H327  1  0.41660000  0.54500000  0.68680000  1
  H  H328  1  0.34260000  0.53640000  0.67880000  1
  H  H329  1  0.33748000  0.88420000  0.48598000  1
  H  H330  1  0.31320000  0.58340000  0.14840000  1
  H  H331  1  0.32120000  0.65740000  0.05780000  1
  H  H332  1  0.51402000  0.66252000  0.20766000  1
  H  H333  1  0.85160000  0.68680000  0.54500000  1
  H  H334  1  0.94220000  0.67880000  0.53640000  1
  H  H335  1  0.79234000  0.48598000  0.88420000  1
  H  H336  1  0.45500000  0.31320000  0.14840000  1
  H  H337  1  0.46360000  0.32120000  0.05780000  1
  H  H338  1  0.11580000  0.51402000  0.20766000  1
  H  H339  1  0.31320000  0.45500000  0.58340000  1
  H  H340  1  0.32120000  0.46360000  0.65740000  1
  H  H341  1  0.51402000  0.11580000  0.66252000  1
  H  H342  1  0.41660000  0.68680000  0.85160000  1
  H  H343  1  0.34260000  0.67880000  0.94220000  1
  H  H344  1  0.33748000  0.48598000  0.79234000  1
  H  H345  1  0.14840000  0.58340000  0.45500000  1
  H  H346  1  0.05780000  0.65740000  0.46360000  1
  H  H347  1  0.20766000  0.66252000  0.11580000  1
  H  H348  1  0.54500000  0.85160000  0.68680000  1
  H  H349  1  0.53640000  0.94220000  0.67880000  1
  H  H350  1  0.88420000  0.79234000  0.48598000  1
  H  H351  1  0.58340000  0.14840000  0.31320000  1
  H  H352  1  0.65740000  0.05780000  0.32120000  1
  H  H353  1  0.66252000  0.20766000  0.51402000  1
  H  H354  1  0.68680000  0.41660000  0.54500000  1
  H  H355  1  0.67880000  0.34260000  0.53640000  1
  H  H356  1  0.48598000  0.33748000  0.88420000  1
  H  H357  1  0.85160000  0.54500000  0.41660000  1
  H  H358  1  0.94220000  0.53640000  0.34260000  1
  H  H359  1  0.79234000  0.88420000  0.33748000  1
  H  H360  1  0.68680000  0.85160000  0.54500000  1
  H  H361  1  0.67880000  0.94220000  0.53640000  1
  H  H362  1  0.48598000  0.79234000  0.88420000  1
  H  H363  1  0.45500000  0.31320000  0.58340000  1
  H  H364  1  0.46360000  0.32120000  0.65740000  1
  H  H365  1  0.11580000  0.51402000  0.66252000  1
  H  H366  1  0.41660000  0.54500000  0.85160000  1
  H  H367  1  0.34260000  0.53640000  0.94220000  1
  H  H368  1  0.33748000  0.88420000  0.79234000  1
  H  H369  1  0.14840000  0.58340000  0.31320000  1
  H  H370  1  0.05780000  0.65740000  0.32120000  1
  H  H371  1  0.20766000  0.66252000  0.51402000  1
  H  H372  1  0.85160000  0.68680000  0.41660000  1
  H  H373  1  0.94220000  0.67880000  0.34260000  1
  H  H374  1  0.79234000  0.48598000  0.33748000  1
  H  H375  1  0.58340000  0.14840000  0.45500000  1
  H  H376  1  0.65740000  0.05780000  0.46360000  1
  H  H377  1  0.66252000  0.20766000  0.11580000  1
  H  H378  1  0.54500000  0.41660000  0.68680000  1
  H  H379  1  0.53640000  0.34260000  0.67880000  1
  H  H380  1  0.88420000  0.33748000  0.48598000  1
  H  H381  1  0.31320000  0.45500000  0.14840000  1
  H  H382  1  0.32120000  0.46360000  0.05780000  1
  H  H383  1  0.51402000  0.11580000  0.20766000  1
  H  H384  1  0.85160000  0.54500000  0.68680000  1
  H  H385  1  0.94220000  0.53640000  0.67880000  1
  H  H386  1  0.79234000  0.88420000  0.48598000  1
  H  H387  1  0.31320000  0.14840000  0.58340000  1
  H  H388  1  0.32120000  0.05780000  0.65740000  1
  H  H389  1  0.51402000  0.20766000  0.66252000  1
  H  H390  1  0.41660000  0.68680000  0.54500000  1
  H  H391  1  0.34260000  0.67880000  0.53640000  1
  H  H392  1  0.33748000  0.48598000  0.88420000  1
  H  H393  1  0.45500000  0.58340000  0.14840000  1
  H  H394  1  0.46360000  0.65740000  0.05780000  1
  H  H395  1  0.11580000  0.66252000  0.20766000  1
  H  H396  1  0.54500000  0.85160000  0.41660000  1
  H  H397  1  0.53640000  0.94220000  0.34260000  1
  H  H398  1  0.88420000  0.79234000  0.33748000  1
  H  H399  1  0.58340000  0.45500000  0.31320000  1
  H  H400  1  0.65740000  0.46360000  0.32120000  1
  H  H401  1  0.66252000  0.11580000  0.51402000  1
  H  H402  1  0.68680000  0.41660000  0.85160000  1
  H  H403  1  0.67880000  0.34260000  0.94220000  1
  H  H404  1  0.48598000  0.33748000  0.79234000  1
  H  H405  1  0.14840000  0.31320000  0.45500000  1
  H  H406  1  0.05780000  0.32120000  0.46360000  1
  H  H407  1  0.20766000  0.51402000  0.11580000  1
  H  H408  1  0.54500000  0.68680000  0.85160000  1
  H  H409  1  0.53640000  0.67880000  0.94220000  1
  H  H410  1  0.88420000  0.48598000  0.79234000  1
  H  H411  1  0.68680000  0.54500000  0.41660000  1
  H  H412  1  0.67880000  0.53640000  0.34260000  1
  H  H413  1  0.48598000  0.88420000  0.33748000  1
  H  H414  1  0.58340000  0.31320000  0.14840000  1
  H  H415  1  0.65740000  0.32120000  0.05780000  1
  H  H416  1  0.66252000  0.51402000  0.20766000  1
  H  H417  1  0.85160000  0.41660000  0.54500000  1
  H  H418  1  0.94220000  0.34260000  0.53640000  1
  H  H419  1  0.79234000  0.33748000  0.88420000  1
  H  H420  1  0.45500000  0.14840000  0.31320000  1
  H  H421  1  0.46360000  0.05780000  0.32120000  1
  H  H422  1  0.11580000  0.20766000  0.51402000  1
  H  H423  1  0.41660000  0.85160000  0.68680000  1
  H  H424  1  0.34260000  0.94220000  0.67880000  1
  H  H425  1  0.33748000  0.79234000  0.48598000  1
  H  H426  1  0.31320000  0.58340000  0.45500000  1
  H  H427  1  0.32120000  0.65740000  0.46360000  1
  H  H428  1  0.51402000  0.66252000  0.11580000  1
  H  H429  1  0.14840000  0.45500000  0.58340000  1
  H  H430  1  0.05780000  0.46360000  0.65740000  1
  H  H431  1  0.20766000  0.11580000  0.66252000  1
  O  O432  1  0.33509000  0.23641000  0.41615000  1
  O  O433  1  0.28767000  0.40411000  0.40411000  1
  O  O434  1  0.34241000  0.34241000  0.47277000  1
  O  O435  1  0.58385000  0.66491000  0.48765000  1
  O  O436  1  0.59589000  0.71233000  0.59589000  1
  O  O437  1  0.52723000  0.65759000  0.65759000  1
  O  O438  1  0.51235000  0.41615000  0.23641000  1
  O  O439  1  0.40411000  0.40411000  0.40411000  1
  O  O440  1  0.34241000  0.47277000  0.34241000  1
  O  O441  1  0.76359000  0.48765000  0.66491000  1
  O  O442  1  0.59589000  0.59589000  0.71233000  1
  O  O443  1  0.65759000  0.65759000  0.65759000  1
  O  O444  1  0.23641000  0.33509000  0.51235000  1
  O  O445  1  0.40411000  0.28767000  0.40411000  1
  O  O446  1  0.34241000  0.34241000  0.34241000  1
  O  O447  1  0.48765000  0.76359000  0.58385000  1
  O  O448  1  0.59589000  0.59589000  0.59589000  1
  O  O449  1  0.65759000  0.65759000  0.52723000  1
  O  O450  1  0.41615000  0.51235000  0.33509000  1
  O  O451  1  0.40411000  0.40411000  0.28767000  1
  O  O452  1  0.47277000  0.34241000  0.34241000  1
  O  O453  1  0.66491000  0.58385000  0.76359000  1
  O  O454  1  0.71233000  0.59589000  0.59589000  1
  O  O455  1  0.65759000  0.52723000  0.65759000  1
  O  O456  1  0.23641000  0.41615000  0.33509000  1
  O  O457  1  0.66491000  0.76359000  0.48765000  1
  O  O458  1  0.51235000  0.33509000  0.41615000  1
  O  O459  1  0.58385000  0.48765000  0.76359000  1
  O  O460  1  0.41615000  0.23641000  0.51235000  1
  O  O461  1  0.48765000  0.58385000  0.66491000  1
  O  O462  1  0.33509000  0.51235000  0.23641000  1
  O  O463  1  0.76359000  0.66491000  0.58385000  1
  O  O464  1  0.41615000  0.33509000  0.23641000  1
  O  O465  1  0.33509000  0.41615000  0.51235000  1
  O  O466  1  0.48765000  0.66491000  0.76359000  1
  O  O467  1  0.23641000  0.51235000  0.41615000  1
  O  O468  1  0.58385000  0.76359000  0.66491000  1
  O  O469  1  0.51235000  0.23641000  0.33509000  1
  O  O470  1  0.66491000  0.48765000  0.58385000  1
  O  O471  1  0.76359000  0.58385000  0.48765000  1
  O  O472  1  0.66491000  0.76359000  0.58385000  1
  O  O473  1  0.41615000  0.33509000  0.51235000  1
  O  O474  1  0.48765000  0.58385000  0.76359000  1
  O  O475  1  0.23641000  0.51235000  0.33509000  1
  O  O476  1  0.76359000  0.66491000  0.48765000  1
  O  O477  1  0.51235000  0.23641000  0.41615000  1
  O  O478  1  0.58385000  0.48765000  0.66491000  1
  O  O479  1  0.33509000  0.41615000  0.23641000  1
  O  O480  1  0.76359000  0.58385000  0.66491000  1
  O  O481  1  0.33509000  0.23641000  0.51235000  1
  O  O482  1  0.48765000  0.66491000  0.58385000  1
  O  O483  1  0.41615000  0.51235000  0.23641000  1
  O  O484  1  0.58385000  0.76359000  0.48765000  1
  O  O485  1  0.51235000  0.41615000  0.33509000  1
  O  O486  1  0.66491000  0.48765000  0.76359000  1
  O  O487  1  0.23641000  0.33509000  0.41615000  1
  O  O488  1  0.58385000  0.66491000  0.76359000  1
  O  O489  1  0.66491000  0.58385000  0.48765000  1
  O  O490  1  0.51235000  0.33509000  0.23641000  1
  O  O491  1  0.76359000  0.48765000  0.58385000  1
  O  O492  1  0.41615000  0.23641000  0.33509000  1
  O  O493  1  0.48765000  0.76359000  0.66491000  1
  O  O494  1  0.33509000  0.51235000  0.41615000  1
  O  O495  1  0.23641000  0.41615000  0.51235000  1
  Zr  Zr496  1  0.31279000  0.31279000  0.43721000  1
  Zr  Zr497  1  0.56279000  0.68721000  0.56279000  1
  Zr  Zr498  1  0.43721000  0.43721000  0.31279000  1
  Zr  Zr499  1  0.68721000  0.56279000  0.68721000  1
  Zr  Zr500  1  0.31279000  0.43721000  0.31279000  1
  Zr  Zr501  1  0.68721000  0.68721000  0.56279000  1
  Zr  Zr502  1  0.43721000  0.31279000  0.43721000  1
  Zr  Zr503  1  0.56279000  0.56279000  0.68721000  1
  Zr  Zr504  1  0.43721000  0.31279000  0.31279000  1
  Zr  Zr505  1  0.31279000  0.43721000  0.43721000  1
  Zr  Zr506  1  0.56279000  0.68721000  0.68721000  1
  Zr  Zr507  1  0.68721000  0.56279000  0.56279000  1
