# generated using pymatgen
data_Zr3H24(C3O)28
_symmetry_space_group_name_H-M   'P 1'
_cell_length_a   28.15303223
_cell_length_b   28.15303223
_cell_length_c   28.15303223
_cell_angle_alpha   60.00000000
_cell_angle_beta   60.00000000
_cell_angle_gamma   60.00000000
_symmetry_Int_Tables_number   1
_chemical_formula_structural   Zr3H24(C3O)28
_chemical_formula_sum   'Zr12 H96 C336 O112'
_cell_volume   15778.31182244
_cell_formula_units_Z   4
loop_
 _symmetry_equiv_pos_site_id
 _symmetry_equiv_pos_as_xyz
  1  'x, y, z'
loop_
 _atom_site_type_symbol
 _atom_site_label
 _atom_site_symmetry_multiplicity
 _atom_site_fract_x
 _atom_site_fract_y
 _atom_site_fract_z
 _atom_site_occupancy
  C  C0  1  0.84388000  0.62908000  0.09834000  1
  C  C1  1  0.86825000  0.36491000  0.31575000  1
  C  C2  1  0.84935000  0.57515000  0.14085000  1
  C  C3  1  0.79310000  0.35010000  0.30870000  1
  C  C4  1  0.87776000  0.71454000  0.02994000  1
  C  C5  1  0.88355000  0.65613000  0.07677000  1
  C  C6  1  0.90738000  0.39204000  0.29320000  1
  C  C7  1  0.89482000  0.54758000  0.16278000  1
  C  C8  1  0.90041000  0.49135000  0.20783000  1
  C  C9  1  0.90477000  0.44533000  0.24513000  1
  C  C10  1  0.90166000  0.15612000  0.07130000  1
  C  C11  1  0.68425000  0.13175000  0.04891000  1
  C  C12  1  0.85915000  0.15065000  0.06535000  1
  C  C13  1  0.69130000  0.20690000  0.95190000  1
  C  C14  1  0.97006000  0.12224000  0.12224000  1
  C  C15  1  0.92323000  0.11645000  0.11645000  1
  C  C16  1  0.70680000  0.09262000  0.09262000  1
  C  C17  1  0.83722000  0.10518000  0.10518000  1
  C  C18  1  0.79217000  0.09959000  0.09959000  1
  C  C19  1  0.75487000  0.09523000  0.09523000  1
  C  C20  1  0.92870000  0.09834000  0.62908000  1
  C  C21  1  0.95109000  0.31575000  0.36491000  1
  C  C22  1  0.93465000  0.14085000  0.57515000  1
  C  C23  1  0.04810000  0.30870000  0.35010000  1
  C  C24  1  0.87776000  0.02994000  0.71454000  1
  C  C25  1  0.88355000  0.07677000  0.65613000  1
  C  C26  1  0.90738000  0.29320000  0.39204000  1
  C  C27  1  0.89482000  0.16278000  0.54758000  1
  C  C28  1  0.90041000  0.20783000  0.49135000  1
  C  C29  1  0.90477000  0.24513000  0.44533000  1
  C  C30  1  0.37092000  0.07130000  0.15612000  1
  C  C31  1  0.63509000  0.04891000  0.13175000  1
  C  C32  1  0.42485000  0.06535000  0.15065000  1
  C  C33  1  0.64990000  0.95190000  0.20690000  1
  C  C34  1  0.28546000  0.12224000  0.12224000  1
  C  C35  1  0.34387000  0.11645000  0.11645000  1
  C  C36  1  0.60796000  0.09262000  0.09262000  1
  C  C37  1  0.45242000  0.10518000  0.10518000  1
  C  C38  1  0.50865000  0.09959000  0.09959000  1
  C  C39  1  0.55467000  0.09523000  0.09523000  1
  C  C40  1  0.62908000  0.84388000  0.92870000  1
  C  C41  1  0.36491000  0.86825000  0.95109000  1
  C  C42  1  0.57515000  0.84935000  0.93465000  1
  C  C43  1  0.35010000  0.79310000  0.04810000  1
  C  C44  1  0.71454000  0.87776000  0.87776000  1
  C  C45  1  0.65613000  0.88355000  0.88355000  1
  C  C46  1  0.39204000  0.90738000  0.90738000  1
  C  C47  1  0.54758000  0.89482000  0.89482000  1
  C  C48  1  0.49135000  0.90041000  0.90041000  1
  C  C49  1  0.44533000  0.90477000  0.90477000  1
  C  C50  1  0.07130000  0.37092000  0.90166000  1
  C  C51  1  0.04891000  0.63509000  0.68425000  1
  C  C52  1  0.06535000  0.42485000  0.85915000  1
  C  C53  1  0.95190000  0.64990000  0.69130000  1
  C  C54  1  0.12224000  0.28546000  0.97006000  1
  C  C55  1  0.11645000  0.34387000  0.92323000  1
  C  C56  1  0.09262000  0.60796000  0.70680000  1
  C  C57  1  0.10518000  0.45242000  0.83722000  1
  C  C58  1  0.09959000  0.50865000  0.79217000  1
  C  C59  1  0.09523000  0.55467000  0.75487000  1
  C  C60  1  0.09834000  0.92870000  0.84388000  1
  C  C61  1  0.31575000  0.95109000  0.86825000  1
  C  C62  1  0.14085000  0.93465000  0.84935000  1
  C  C63  1  0.30870000  0.04810000  0.79310000  1
  C  C64  1  0.02994000  0.87776000  0.87776000  1
  C  C65  1  0.07677000  0.88355000  0.88355000  1
  C  C66  1  0.29320000  0.90738000  0.90738000  1
  C  C67  1  0.16278000  0.89482000  0.89482000  1
  C  C68  1  0.20783000  0.90041000  0.90041000  1
  C  C69  1  0.24513000  0.90477000  0.90477000  1
  C  C70  1  0.15612000  0.90166000  0.37092000  1
  C  C71  1  0.13175000  0.68425000  0.63509000  1
  C  C72  1  0.15065000  0.85915000  0.42485000  1
  C  C73  1  0.20690000  0.69130000  0.64990000  1
  C  C74  1  0.12224000  0.97006000  0.28546000  1
  C  C75  1  0.11645000  0.92323000  0.34387000  1
  C  C76  1  0.09262000  0.70680000  0.60796000  1
  C  C77  1  0.10518000  0.83722000  0.45242000  1
  C  C78  1  0.09959000  0.79217000  0.50865000  1
  C  C79  1  0.09523000  0.75487000  0.55467000  1
  C  C80  1  0.62908000  0.09834000  0.84388000  1
  C  C81  1  0.36491000  0.31575000  0.86825000  1
  C  C82  1  0.57515000  0.14085000  0.84935000  1
  C  C83  1  0.35010000  0.30870000  0.79310000  1
  C  C84  1  0.71454000  0.02994000  0.87776000  1
  C  C85  1  0.65613000  0.07677000  0.88355000  1
  C  C86  1  0.39204000  0.29320000  0.90738000  1
  C  C87  1  0.54758000  0.16278000  0.89482000  1
  C  C88  1  0.49135000  0.20783000  0.90041000  1
  C  C89  1  0.44533000  0.24513000  0.90477000  1
  C  C90  1  0.15612000  0.37092000  0.07130000  1
  C  C91  1  0.13175000  0.63509000  0.04891000  1
  C  C92  1  0.15065000  0.42485000  0.06535000  1
  C  C93  1  0.20690000  0.64990000  0.95190000  1
  C  C94  1  0.12224000  0.28546000  0.12224000  1
  C  C95  1  0.11645000  0.34387000  0.11645000  1
  C  C96  1  0.09262000  0.60796000  0.09262000  1
  C  C97  1  0.10518000  0.45242000  0.10518000  1
  C  C98  1  0.09959000  0.50865000  0.09959000  1
  C  C99  1  0.09523000  0.55467000  0.09523000  1
  C  C100  1  0.92870000  0.84388000  0.09834000  1
  C  C101  1  0.95109000  0.86825000  0.31575000  1
  C  C102  1  0.93465000  0.84935000  0.14085000  1
  C  C103  1  0.04810000  0.79310000  0.30870000  1
  C  C104  1  0.87776000  0.87776000  0.02994000  1
  C  C105  1  0.88355000  0.88355000  0.07677000  1
  C  C106  1  0.90738000  0.90738000  0.29320000  1
  C  C107  1  0.89482000  0.89482000  0.16278000  1
  C  C108  1  0.90041000  0.90041000  0.20783000  1
  C  C109  1  0.90477000  0.90477000  0.24513000  1
  C  C110  1  0.90166000  0.07130000  0.37092000  1
  C  C111  1  0.68425000  0.04891000  0.63509000  1
  C  C112  1  0.85915000  0.06535000  0.42485000  1
  C  C113  1  0.69130000  0.95190000  0.64990000  1
  C  C114  1  0.97006000  0.12224000  0.28546000  1
  C  C115  1  0.92323000  0.11645000  0.34387000  1
  C  C116  1  0.70680000  0.09262000  0.60796000  1
  C  C117  1  0.83722000  0.10518000  0.45242000  1
  C  C118  1  0.79217000  0.09959000  0.50865000  1
  C  C119  1  0.75487000  0.09523000  0.55467000  1
  C  C120  1  0.09834000  0.62908000  0.92870000  1
  C  C121  1  0.31575000  0.36491000  0.95109000  1
  C  C122  1  0.14085000  0.57515000  0.93465000  1
  C  C123  1  0.30870000  0.35010000  0.04810000  1
  C  C124  1  0.02994000  0.71454000  0.87776000  1
  C  C125  1  0.07677000  0.65613000  0.88355000  1
  C  C126  1  0.29320000  0.39204000  0.90738000  1
  C  C127  1  0.16278000  0.54758000  0.89482000  1
  C  C128  1  0.20783000  0.49135000  0.90041000  1
  C  C129  1  0.24513000  0.44533000  0.90477000  1
  C  C130  1  0.07130000  0.90166000  0.15612000  1
  C  C131  1  0.04891000  0.68425000  0.13175000  1
  C  C132  1  0.06535000  0.85915000  0.15065000  1
  C  C133  1  0.95190000  0.69130000  0.20690000  1
  C  C134  1  0.12224000  0.97006000  0.12224000  1
  C  C135  1  0.11645000  0.92323000  0.11645000  1
  C  C136  1  0.09262000  0.70680000  0.09262000  1
  C  C137  1  0.10518000  0.83722000  0.10518000  1
  C  C138  1  0.09959000  0.79217000  0.09959000  1
  C  C139  1  0.09523000  0.75487000  0.09523000  1
  C  C140  1  0.84388000  0.92870000  0.62908000  1
  C  C141  1  0.86825000  0.95109000  0.36491000  1
  C  C142  1  0.84935000  0.93465000  0.57515000  1
  C  C143  1  0.79310000  0.04810000  0.35010000  1
  C  C144  1  0.87776000  0.87776000  0.71454000  1
  C  C145  1  0.88355000  0.88355000  0.65613000  1
  C  C146  1  0.90738000  0.90738000  0.39204000  1
  C  C147  1  0.89482000  0.89482000  0.54758000  1
  C  C148  1  0.90041000  0.90041000  0.49135000  1
  C  C149  1  0.90477000  0.90477000  0.44533000  1
  C  C150  1  0.37092000  0.15612000  0.90166000  1
  C  C151  1  0.63509000  0.13175000  0.68425000  1
  C  C152  1  0.42485000  0.15065000  0.85915000  1
  C  C153  1  0.64990000  0.20690000  0.69130000  1
  C  C154  1  0.28546000  0.12224000  0.97006000  1
  C  C155  1  0.34387000  0.11645000  0.92323000  1
  C  C156  1  0.60796000  0.09262000  0.70680000  1
  C  C157  1  0.45242000  0.10518000  0.83722000  1
  C  C158  1  0.50865000  0.09959000  0.79217000  1
  C  C159  1  0.55467000  0.09523000  0.75487000  1
  C  C160  1  0.09834000  0.84388000  0.62908000  1
  C  C161  1  0.31575000  0.86825000  0.36491000  1
  C  C162  1  0.14085000  0.84935000  0.57515000  1
  C  C163  1  0.30870000  0.79310000  0.35010000  1
  C  C164  1  0.02994000  0.87776000  0.71454000  1
  C  C165  1  0.07677000  0.88355000  0.65613000  1
  C  C166  1  0.29320000  0.90738000  0.39204000  1
  C  C167  1  0.16278000  0.89482000  0.54758000  1
  C  C168  1  0.20783000  0.90041000  0.49135000  1
  C  C169  1  0.24513000  0.90477000  0.44533000  1
  C  C170  1  0.84388000  0.09834000  0.92870000  1
  C  C171  1  0.86825000  0.31575000  0.95109000  1
  C  C172  1  0.84935000  0.14085000  0.93465000  1
  C  C173  1  0.79310000  0.30870000  0.04810000  1
  C  C174  1  0.87776000  0.02994000  0.87776000  1
  C  C175  1  0.88355000  0.07677000  0.88355000  1
  C  C176  1  0.90738000  0.29320000  0.90738000  1
  C  C177  1  0.89482000  0.16278000  0.89482000  1
  C  C178  1  0.90041000  0.20783000  0.90041000  1
  C  C179  1  0.90477000  0.24513000  0.90477000  1
  C  C180  1  0.07130000  0.15612000  0.37092000  1
  C  C181  1  0.04891000  0.13175000  0.63509000  1
  C  C182  1  0.06535000  0.15065000  0.42485000  1
  C  C183  1  0.95190000  0.20690000  0.64990000  1
  C  C184  1  0.12224000  0.12224000  0.28546000  1
  C  C185  1  0.11645000  0.11645000  0.34387000  1
  C  C186  1  0.09262000  0.09262000  0.60796000  1
  C  C187  1  0.10518000  0.10518000  0.45242000  1
  C  C188  1  0.09959000  0.09959000  0.50865000  1
  C  C189  1  0.09523000  0.09523000  0.55467000  1
  C  C190  1  0.62908000  0.92870000  0.09834000  1
  C  C191  1  0.36491000  0.95109000  0.31575000  1
  C  C192  1  0.57515000  0.93465000  0.14085000  1
  C  C193  1  0.35010000  0.04810000  0.30870000  1
  C  C194  1  0.71454000  0.87776000  0.02994000  1
  C  C195  1  0.65613000  0.88355000  0.07677000  1
  C  C196  1  0.39204000  0.90738000  0.29320000  1
  C  C197  1  0.54758000  0.89482000  0.16278000  1
  C  C198  1  0.49135000  0.90041000  0.20783000  1
  C  C199  1  0.44533000  0.90477000  0.24513000  1
  C  C200  1  0.90166000  0.37092000  0.15612000  1
  C  C201  1  0.68425000  0.63509000  0.13175000  1
  C  C202  1  0.85915000  0.42485000  0.15065000  1
  C  C203  1  0.69130000  0.64990000  0.20690000  1
  C  C204  1  0.97006000  0.28546000  0.12224000  1
  C  C205  1  0.92323000  0.34387000  0.11645000  1
  C  C206  1  0.70680000  0.60796000  0.09262000  1
  C  C207  1  0.83722000  0.45242000  0.10518000  1
  C  C208  1  0.79217000  0.50865000  0.09959000  1
  C  C209  1  0.75487000  0.55467000  0.09523000  1
  C  C210  1  0.92870000  0.62908000  0.84388000  1
  C  C211  1  0.95109000  0.36491000  0.86825000  1
  C  C212  1  0.93465000  0.57515000  0.84935000  1
  C  C213  1  0.04810000  0.35010000  0.79310000  1
  C  C214  1  0.87776000  0.71454000  0.87776000  1
  C  C215  1  0.88355000  0.65613000  0.88355000  1
  C  C216  1  0.90738000  0.39204000  0.90738000  1
  C  C217  1  0.89482000  0.54758000  0.89482000  1
  C  C218  1  0.90041000  0.49135000  0.90041000  1
  C  C219  1  0.90477000  0.44533000  0.90477000  1
  C  C220  1  0.15612000  0.07130000  0.90166000  1
  C  C221  1  0.13175000  0.04891000  0.68425000  1
  C  C222  1  0.15065000  0.06535000  0.85915000  1
  C  C223  1  0.20690000  0.95190000  0.69130000  1
  C  C224  1  0.12224000  0.12224000  0.97006000  1
  C  C225  1  0.11645000  0.11645000  0.92323000  1
  C  C226  1  0.09262000  0.09262000  0.70680000  1
  C  C227  1  0.10518000  0.10518000  0.83722000  1
  C  C228  1  0.09959000  0.09959000  0.79217000  1
  C  C229  1  0.09523000  0.09523000  0.75487000  1
  C  C230  1  0.37092000  0.90166000  0.07130000  1
  C  C231  1  0.63509000  0.68425000  0.04891000  1
  C  C232  1  0.42485000  0.85915000  0.06535000  1
  C  C233  1  0.64990000  0.69130000  0.95190000  1
  C  C234  1  0.28546000  0.97006000  0.12224000  1
  C  C235  1  0.34387000  0.92323000  0.11645000  1
  C  C236  1  0.60796000  0.70680000  0.09262000  1
  C  C237  1  0.45242000  0.83722000  0.10518000  1
  C  C238  1  0.50865000  0.79217000  0.09959000  1
  C  C239  1  0.55467000  0.75487000  0.09523000  1
  C  C240  1  0.15612000  0.37092000  0.90166000  1
  C  C241  1  0.13175000  0.63509000  0.68425000  1
  C  C242  1  0.15065000  0.42485000  0.85915000  1
  C  C243  1  0.20690000  0.64990000  0.69130000  1
  C  C244  1  0.09834000  0.84388000  0.92870000  1
  C  C245  1  0.31575000  0.86825000  0.95109000  1
  C  C246  1  0.14085000  0.84935000  0.93465000  1
  C  C247  1  0.30870000  0.79310000  0.04810000  1
  C  C248  1  0.07130000  0.90166000  0.37092000  1
  C  C249  1  0.04891000  0.68425000  0.63509000  1
  C  C250  1  0.06535000  0.85915000  0.42485000  1
  C  C251  1  0.95190000  0.69130000  0.64990000  1
  C  C252  1  0.62908000  0.92870000  0.84388000  1
  C  C253  1  0.36491000  0.95109000  0.86825000  1
  C  C254  1  0.57515000  0.93465000  0.84935000  1
  C  C255  1  0.35010000  0.04810000  0.79310000  1
  C  C256  1  0.37092000  0.15612000  0.07130000  1
  C  C257  1  0.63509000  0.13175000  0.04891000  1
  C  C258  1  0.42485000  0.15065000  0.06535000  1
  C  C259  1  0.64990000  0.20690000  0.95190000  1
  C  C260  1  0.92870000  0.62908000  0.09834000  1
  C  C261  1  0.95109000  0.36491000  0.31575000  1
  C  C262  1  0.93465000  0.57515000  0.14085000  1
  C  C263  1  0.04810000  0.35010000  0.30870000  1
  C  C264  1  0.90166000  0.07130000  0.15612000  1
  C  C265  1  0.68425000  0.04891000  0.13175000  1
  C  C266  1  0.85915000  0.06535000  0.15065000  1
  C  C267  1  0.69130000  0.95190000  0.20690000  1
  C  C268  1  0.84388000  0.09834000  0.62908000  1
  C  C269  1  0.86825000  0.31575000  0.36491000  1
  C  C270  1  0.84935000  0.14085000  0.57515000  1
  C  C271  1  0.79310000  0.30870000  0.35010000  1
  C  C272  1  0.37092000  0.90166000  0.15612000  1
  C  C273  1  0.63509000  0.68425000  0.13175000  1
  C  C274  1  0.42485000  0.85915000  0.15065000  1
  C  C275  1  0.64990000  0.69130000  0.20690000  1
  C  C276  1  0.84388000  0.62908000  0.92870000  1
  C  C277  1  0.86825000  0.36491000  0.95109000  1
  C  C278  1  0.84935000  0.57515000  0.93465000  1
  C  C279  1  0.79310000  0.35010000  0.04810000  1
  C  C280  1  0.07130000  0.15612000  0.90166000  1
  C  C281  1  0.04891000  0.13175000  0.68425000  1
  C  C282  1  0.06535000  0.15065000  0.85915000  1
  C  C283  1  0.95190000  0.20690000  0.69130000  1
  C  C284  1  0.09834000  0.92870000  0.62908000  1
  C  C285  1  0.31575000  0.95109000  0.36491000  1
  C  C286  1  0.14085000  0.93465000  0.57515000  1
  C  C287  1  0.30870000  0.04810000  0.35010000  1
  C  C288  1  0.90166000  0.37092000  0.07130000  1
  C  C289  1  0.68425000  0.63509000  0.04891000  1
  C  C290  1  0.85915000  0.42485000  0.06535000  1
  C  C291  1  0.69130000  0.64990000  0.95190000  1
  C  C292  1  0.92870000  0.09834000  0.84388000  1
  C  C293  1  0.95109000  0.31575000  0.86825000  1
  C  C294  1  0.93465000  0.14085000  0.84935000  1
  C  C295  1  0.04810000  0.30870000  0.79310000  1
  C  C296  1  0.15612000  0.07130000  0.37092000  1
  C  C297  1  0.13175000  0.04891000  0.63509000  1
  C  C298  1  0.15065000  0.06535000  0.42485000  1
  C  C299  1  0.20690000  0.95190000  0.64990000  1
  C  C300  1  0.62908000  0.84388000  0.09834000  1
  C  C301  1  0.36491000  0.86825000  0.31575000  1
  C  C302  1  0.57515000  0.84935000  0.14085000  1
  C  C303  1  0.35010000  0.79310000  0.30870000  1
  C  C304  1  0.90166000  0.15612000  0.37092000  1
  C  C305  1  0.68425000  0.13175000  0.63509000  1
  C  C306  1  0.85915000  0.15065000  0.42485000  1
  C  C307  1  0.69130000  0.20690000  0.64990000  1
  C  C308  1  0.15612000  0.90166000  0.07130000  1
  C  C309  1  0.13175000  0.68425000  0.04891000  1
  C  C310  1  0.15065000  0.85915000  0.06535000  1
  C  C311  1  0.20690000  0.69130000  0.95190000  1
  C  C312  1  0.92870000  0.84388000  0.62908000  1
  C  C313  1  0.95109000  0.86825000  0.36491000  1
  C  C314  1  0.93465000  0.84935000  0.57515000  1
  C  C315  1  0.04810000  0.79310000  0.35010000  1
  C  C316  1  0.37092000  0.07130000  0.90166000  1
  C  C317  1  0.63509000  0.04891000  0.68425000  1
  C  C318  1  0.42485000  0.06535000  0.85915000  1
  C  C319  1  0.64990000  0.95190000  0.69130000  1
  C  C320  1  0.09834000  0.62908000  0.84388000  1
  C  C321  1  0.31575000  0.36491000  0.86825000  1
  C  C322  1  0.14085000  0.57515000  0.84935000  1
  C  C323  1  0.30870000  0.35010000  0.79310000  1
  C  C324  1  0.07130000  0.37092000  0.15612000  1
  C  C325  1  0.04891000  0.63509000  0.13175000  1
  C  C326  1  0.06535000  0.42485000  0.15065000  1
  C  C327  1  0.95190000  0.64990000  0.20690000  1
  C  C328  1  0.84388000  0.92870000  0.09834000  1
  C  C329  1  0.86825000  0.95109000  0.31575000  1
  C  C330  1  0.84935000  0.93465000  0.14085000  1
  C  C331  1  0.79310000  0.04810000  0.30870000  1
  C  C332  1  0.62908000  0.09834000  0.92870000  1
  C  C333  1  0.36491000  0.31575000  0.95109000  1
  C  C334  1  0.57515000  0.14085000  0.93465000  1
  C  C335  1  0.35010000  0.30870000  0.04810000  1
  H  H336  1  0.81260000  0.64780000  0.08380000  1
  H  H337  1  0.82200000  0.55680000  0.15520000  1
  H  H338  1  0.91620000  0.18740000  0.04420000  1
  H  H339  1  0.84480000  0.17800000  0.03400000  1
  H  H340  1  0.95580000  0.08380000  0.64780000  1
  H  H341  1  0.96600000  0.15520000  0.55680000  1
  H  H342  1  0.35220000  0.04420000  0.18740000  1
  H  H343  1  0.44320000  0.03400000  0.17800000  1
  H  H344  1  0.64780000  0.81260000  0.95580000  1
  H  H345  1  0.55680000  0.82200000  0.96600000  1
  H  H346  1  0.04420000  0.35220000  0.91620000  1
  H  H347  1  0.03400000  0.44320000  0.84480000  1
  H  H348  1  0.08380000  0.95580000  0.81260000  1
  H  H349  1  0.15520000  0.96600000  0.82200000  1
  H  H350  1  0.18740000  0.91620000  0.35220000  1
  H  H351  1  0.17800000  0.84480000  0.44320000  1
  H  H352  1  0.64780000  0.08380000  0.81260000  1
  H  H353  1  0.55680000  0.15520000  0.82200000  1
  H  H354  1  0.18740000  0.35220000  0.04420000  1
  H  H355  1  0.17800000  0.44320000  0.03400000  1
  H  H356  1  0.95580000  0.81260000  0.08380000  1
  H  H357  1  0.96600000  0.82200000  0.15520000  1
  H  H358  1  0.91620000  0.04420000  0.35220000  1
  H  H359  1  0.84480000  0.03400000  0.44320000  1
  H  H360  1  0.08380000  0.64780000  0.95580000  1
  H  H361  1  0.15520000  0.55680000  0.96600000  1
  H  H362  1  0.04420000  0.91620000  0.18740000  1
  H  H363  1  0.03400000  0.84480000  0.17800000  1
  H  H364  1  0.81260000  0.95580000  0.64780000  1
  H  H365  1  0.82200000  0.96600000  0.55680000  1
  H  H366  1  0.35220000  0.18740000  0.91620000  1
  H  H367  1  0.44320000  0.17800000  0.84480000  1
  H  H368  1  0.08380000  0.81260000  0.64780000  1
  H  H369  1  0.15520000  0.82200000  0.55680000  1
  H  H370  1  0.81260000  0.08380000  0.95580000  1
  H  H371  1  0.82200000  0.15520000  0.96600000  1
  H  H372  1  0.04420000  0.18740000  0.35220000  1
  H  H373  1  0.03400000  0.17800000  0.44320000  1
  H  H374  1  0.64780000  0.95580000  0.08380000  1
  H  H375  1  0.55680000  0.96600000  0.15520000  1
  H  H376  1  0.91620000  0.35220000  0.18740000  1
  H  H377  1  0.84480000  0.44320000  0.17800000  1
  H  H378  1  0.95580000  0.64780000  0.81260000  1
  H  H379  1  0.96600000  0.55680000  0.82200000  1
  H  H380  1  0.18740000  0.04420000  0.91620000  1
  H  H381  1  0.17800000  0.03400000  0.84480000  1
  H  H382  1  0.35220000  0.91620000  0.04420000  1
  H  H383  1  0.44320000  0.84480000  0.03400000  1
  H  H384  1  0.18740000  0.35220000  0.91620000  1
  H  H385  1  0.17800000  0.44320000  0.84480000  1
  H  H386  1  0.08380000  0.81260000  0.95580000  1
  H  H387  1  0.15520000  0.82200000  0.96600000  1
  H  H388  1  0.04420000  0.91620000  0.35220000  1
  H  H389  1  0.03400000  0.84480000  0.44320000  1
  H  H390  1  0.64780000  0.95580000  0.81260000  1
  H  H391  1  0.55680000  0.96600000  0.82200000  1
  H  H392  1  0.35220000  0.18740000  0.04420000  1
  H  H393  1  0.44320000  0.17800000  0.03400000  1
  H  H394  1  0.95580000  0.64780000  0.08380000  1
  H  H395  1  0.96600000  0.55680000  0.15520000  1
  H  H396  1  0.91620000  0.04420000  0.18740000  1
  H  H397  1  0.84480000  0.03400000  0.17800000  1
  H  H398  1  0.81260000  0.08380000  0.64780000  1
  H  H399  1  0.82200000  0.15520000  0.55680000  1
  H  H400  1  0.35220000  0.91620000  0.18740000  1
  H  H401  1  0.44320000  0.84480000  0.17800000  1
  H  H402  1  0.81260000  0.64780000  0.95580000  1
  H  H403  1  0.82200000  0.55680000  0.96600000  1
  H  H404  1  0.04420000  0.18740000  0.91620000  1
  H  H405  1  0.03400000  0.17800000  0.84480000  1
  H  H406  1  0.08380000  0.95580000  0.64780000  1
  H  H407  1  0.15520000  0.96600000  0.55680000  1
  H  H408  1  0.91620000  0.35220000  0.04420000  1
  H  H409  1  0.84480000  0.44320000  0.03400000  1
  H  H410  1  0.95580000  0.08380000  0.81260000  1
  H  H411  1  0.96600000  0.15520000  0.82200000  1
  H  H412  1  0.18740000  0.04420000  0.35220000  1
  H  H413  1  0.17800000  0.03400000  0.44320000  1
  H  H414  1  0.64780000  0.81260000  0.08380000  1
  H  H415  1  0.55680000  0.82200000  0.15520000  1
  H  H416  1  0.91620000  0.18740000  0.35220000  1
  H  H417  1  0.84480000  0.17800000  0.44320000  1
  H  H418  1  0.18740000  0.91620000  0.04420000  1
  H  H419  1  0.17800000  0.84480000  0.03400000  1
  H  H420  1  0.95580000  0.81260000  0.64780000  1
  H  H421  1  0.96600000  0.82200000  0.55680000  1
  H  H422  1  0.35220000  0.04420000  0.91620000  1
  H  H423  1  0.44320000  0.03400000  0.84480000  1
  H  H424  1  0.08380000  0.64780000  0.81260000  1
  H  H425  1  0.15520000  0.55680000  0.82200000  1
  H  H426  1  0.04420000  0.35220000  0.18740000  1
  H  H427  1  0.03400000  0.44320000  0.17800000  1
  H  H428  1  0.81260000  0.95580000  0.08380000  1
  H  H429  1  0.82200000  0.96600000  0.15520000  1
  H  H430  1  0.64780000  0.08380000  0.95580000  1
  H  H431  1  0.55680000  0.15520000  0.96600000  1
  O  O432  1  0.83512000  0.73672000  0.01242000  1
  O  O433  1  0.83004000  0.38696000  0.28864000  1
  O  O434  1  0.78656000  0.90448000  0.90448000  1
  O  O435  1  0.84289000  0.84289000  0.97133000  1
  O  O436  1  0.98758000  0.16488000  0.08426000  1
  O  O437  1  0.71136000  0.16996000  0.00564000  1
  O  O438  1  0.09552000  0.21344000  0.09552000  1
  O  O439  1  0.02867000  0.15711000  0.15711000  1
  O  O440  1  0.91574000  0.01242000  0.73672000  1
  O  O441  1  0.99436000  0.28864000  0.38696000  1
  O  O442  1  0.90448000  0.90448000  0.90448000  1
  O  O443  1  0.84289000  0.97133000  0.84289000  1
  O  O444  1  0.26328000  0.08426000  0.16488000  1
  O  O445  1  0.61304000  0.00564000  0.16996000  1
  O  O446  1  0.09552000  0.09552000  0.21344000  1
  O  O447  1  0.15711000  0.15711000  0.15711000  1
  O  O448  1  0.73672000  0.83512000  0.91574000  1
  O  O449  1  0.38696000  0.83004000  0.99436000  1
  O  O450  1  0.90448000  0.78656000  0.90448000  1
  O  O451  1  0.84289000  0.84289000  0.84289000  1
  O  O452  1  0.08426000  0.26328000  0.98758000  1
  O  O453  1  0.00564000  0.61304000  0.71136000  1
  O  O454  1  0.09552000  0.09552000  0.09552000  1
  O  O455  1  0.15711000  0.15711000  0.02867000  1
  O  O456  1  0.01242000  0.91574000  0.83512000  1
  O  O457  1  0.28864000  0.99436000  0.83004000  1
  O  O458  1  0.90448000  0.90448000  0.78656000  1
  O  O459  1  0.97133000  0.84289000  0.84289000  1
  O  O460  1  0.16488000  0.98758000  0.26328000  1
  O  O461  1  0.16996000  0.71136000  0.61304000  1
  O  O462  1  0.21344000  0.09552000  0.09552000  1
  O  O463  1  0.15711000  0.02867000  0.15711000  1
  O  O464  1  0.73672000  0.01242000  0.83512000  1
  O  O465  1  0.38696000  0.28864000  0.83004000  1
  O  O466  1  0.16488000  0.26328000  0.08426000  1
  O  O467  1  0.16996000  0.61304000  0.00564000  1
  O  O468  1  0.91574000  0.83512000  0.01242000  1
  O  O469  1  0.99436000  0.83004000  0.28864000  1
  O  O470  1  0.98758000  0.08426000  0.26328000  1
  O  O471  1  0.71136000  0.00564000  0.61304000  1
  O  O472  1  0.01242000  0.73672000  0.91574000  1
  O  O473  1  0.28864000  0.38696000  0.99436000  1
  O  O474  1  0.08426000  0.98758000  0.16488000  1
  O  O475  1  0.00564000  0.71136000  0.16996000  1
  O  O476  1  0.83512000  0.91574000  0.73672000  1
  O  O477  1  0.83004000  0.99436000  0.38696000  1
  O  O478  1  0.26328000  0.16488000  0.98758000  1
  O  O479  1  0.61304000  0.16996000  0.71136000  1
  O  O480  1  0.01242000  0.83512000  0.73672000  1
  O  O481  1  0.28864000  0.83004000  0.38696000  1
  O  O482  1  0.83512000  0.01242000  0.91574000  1
  O  O483  1  0.83004000  0.28864000  0.99436000  1
  O  O484  1  0.08426000  0.16488000  0.26328000  1
  O  O485  1  0.00564000  0.16996000  0.61304000  1
  O  O486  1  0.73672000  0.91574000  0.01242000  1
  O  O487  1  0.38696000  0.99436000  0.28864000  1
  O  O488  1  0.98758000  0.26328000  0.16488000  1
  O  O489  1  0.71136000  0.61304000  0.16996000  1
  O  O490  1  0.91574000  0.73672000  0.83512000  1
  O  O491  1  0.99436000  0.38696000  0.83004000  1
  O  O492  1  0.16488000  0.08426000  0.98758000  1
  O  O493  1  0.16996000  0.00564000  0.71136000  1
  O  O494  1  0.26328000  0.98758000  0.08426000  1
  O  O495  1  0.61304000  0.71136000  0.00564000  1
  O  O496  1  0.16488000  0.26328000  0.98758000  1
  O  O497  1  0.16996000  0.61304000  0.71136000  1
  O  O498  1  0.01242000  0.83512000  0.91574000  1
  O  O499  1  0.28864000  0.83004000  0.99436000  1
  O  O500  1  0.08426000  0.98758000  0.26328000  1
  O  O501  1  0.00564000  0.71136000  0.61304000  1
  O  O502  1  0.73672000  0.91574000  0.83512000  1
  O  O503  1  0.38696000  0.99436000  0.83004000  1
  O  O504  1  0.26328000  0.16488000  0.08426000  1
  O  O505  1  0.61304000  0.16996000  0.00564000  1
  O  O506  1  0.91574000  0.73672000  0.01242000  1
  O  O507  1  0.99436000  0.38696000  0.28864000  1
  O  O508  1  0.98758000  0.08426000  0.16488000  1
  O  O509  1  0.71136000  0.00564000  0.16996000  1
  O  O510  1  0.83512000  0.01242000  0.73672000  1
  O  O511  1  0.83004000  0.28864000  0.38696000  1
  O  O512  1  0.26328000  0.98758000  0.16488000  1
  O  O513  1  0.61304000  0.71136000  0.16996000  1
  O  O514  1  0.83512000  0.73672000  0.91574000  1
  O  O515  1  0.83004000  0.38696000  0.99436000  1
  O  O516  1  0.08426000  0.16488000  0.98758000  1
  O  O517  1  0.00564000  0.16996000  0.71136000  1
  O  O518  1  0.01242000  0.91574000  0.73672000  1
  O  O519  1  0.28864000  0.99436000  0.38696000  1
  O  O520  1  0.98758000  0.26328000  0.08426000  1
  O  O521  1  0.71136000  0.61304000  0.00564000  1
  O  O522  1  0.91574000  0.01242000  0.83512000  1
  O  O523  1  0.99436000  0.28864000  0.83004000  1
  O  O524  1  0.16488000  0.08426000  0.26328000  1
  O  O525  1  0.16996000  0.00564000  0.61304000  1
  O  O526  1  0.73672000  0.83512000  0.01242000  1
  O  O527  1  0.38696000  0.83004000  0.28864000  1
  O  O528  1  0.98758000  0.16488000  0.26328000  1
  O  O529  1  0.71136000  0.16996000  0.61304000  1
  O  O530  1  0.16488000  0.98758000  0.08426000  1
  O  O531  1  0.16996000  0.71136000  0.00564000  1
  O  O532  1  0.91574000  0.83512000  0.73672000  1
  O  O533  1  0.99436000  0.83004000  0.38696000  1
  O  O534  1  0.26328000  0.08426000  0.98758000  1
  O  O535  1  0.61304000  0.00564000  0.71136000  1
  O  O536  1  0.01242000  0.73672000  0.83512000  1
  O  O537  1  0.28864000  0.38696000  0.83004000  1
  O  O538  1  0.08426000  0.26328000  0.16488000  1
  O  O539  1  0.00564000  0.61304000  0.16996000  1
  O  O540  1  0.83512000  0.91574000  0.01242000  1
  O  O541  1  0.83004000  0.99436000  0.28864000  1
  O  O542  1  0.73672000  0.01242000  0.91574000  1
  O  O543  1  0.38696000  0.28864000  0.99436000  1
  Zr  Zr544  1  0.81284000  0.81284000  0.93716000  1
  Zr  Zr545  1  0.06284000  0.18716000  0.06284000  1
  Zr  Zr546  1  0.93716000  0.93716000  0.81284000  1
  Zr  Zr547  1  0.18716000  0.06284000  0.18716000  1
  Zr  Zr548  1  0.81284000  0.93716000  0.81284000  1
  Zr  Zr549  1  0.18716000  0.18716000  0.06284000  1
  Zr  Zr550  1  0.93716000  0.81284000  0.93716000  1
  Zr  Zr551  1  0.06284000  0.06284000  0.18716000  1
  Zr  Zr552  1  0.93716000  0.81284000  0.81284000  1
  Zr  Zr553  1  0.81284000  0.93716000  0.93716000  1
  Zr  Zr554  1  0.06284000  0.18716000  0.18716000  1
  Zr  Zr555  1  0.18716000  0.06284000  0.06284000  1
