# generated using pymatgen
data_Zr6H18C45N18O29
_symmetry_space_group_name_H-M   'P 1'
_cell_length_a   18.95000000
_cell_length_b   18.95000000
_cell_length_c   43.97900000
_cell_angle_alpha   90.00000000
_cell_angle_beta   90.00000000
_cell_angle_gamma   120.00000000
_symmetry_Int_Tables_number   1
_chemical_formula_structural   Zr6H18C45N18O29
_chemical_formula_sum   'Zr24 H72 C180 N72 O116'
_cell_volume   13677.11222311
_cell_formula_units_Z   4
loop_
 _symmetry_equiv_pos_site_id
 _symmetry_equiv_pos_as_xyz
  1  'x, y, z'
loop_
 _atom_site_type_symbol
 _atom_site_label
 _atom_site_symmetry_multiplicity
 _atom_site_fract_x
 _atom_site_fract_y
 _atom_site_fract_z
 _atom_site_occupancy
  Zr  Zr0  1  0.44940000  0.72470000  0.63870000  1
  Zr  Zr1  1  0.39220000  0.78440000  0.71020000  1
  Zr  Zr2  1  0.72470000  0.27530000  0.13870000  1
  Zr  Zr3  1  0.78440000  0.39220000  0.21020000  1
  Zr  Zr4  1  0.27530000  0.55060000  0.63870000  1
  Zr  Zr5  1  0.39220000  0.60780000  0.71020000  1
  Zr  Zr6  1  0.55060000  0.27530000  0.13870000  1
  Zr  Zr7  1  0.60780000  0.21560000  0.21020000  1
  Zr  Zr8  1  0.27530000  0.72470000  0.63870000  1
  Zr  Zr9  1  0.21560000  0.60780000  0.71020000  1
  Zr  Zr10  1  0.72470000  0.44940000  0.13870000  1
  Zr  Zr11  1  0.60780000  0.39220000  0.21020000  1
  Zr  Zr12  1  0.27530000  0.72470000  0.86130000  1
  Zr  Zr13  1  0.39220000  0.78440000  0.78980000  1
  Zr  Zr14  1  0.72470000  0.44940000  0.36130000  1
  Zr  Zr15  1  0.78440000  0.39220000  0.28980000  1
  Zr  Zr16  1  0.44940000  0.72470000  0.86130000  1
  Zr  Zr17  1  0.39220000  0.60780000  0.78980000  1
  Zr  Zr18  1  0.72470000  0.27530000  0.36130000  1
  Zr  Zr19  1  0.60780000  0.21560000  0.28980000  1
  Zr  Zr20  1  0.27530000  0.55060000  0.86130000  1
  Zr  Zr21  1  0.21560000  0.60780000  0.78980000  1
  Zr  Zr22  1  0.55060000  0.27530000  0.36130000  1
  Zr  Zr23  1  0.60780000  0.39220000  0.28980000  1
  H  H24  1  0.55471000  0.87840000  0.56516000  1
  H  H25  1  0.26053000  0.94748000  0.63302000  1
  H  H26  1  0.39299000  0.01410000  0.71952000  1
  H  H27  1  0.87840000  0.32369000  0.06516000  1
  H  H28  1  0.94748000  0.68695000  0.13302000  1
  H  H29  1  0.01410000  0.62111000  0.21952000  1
  H  H30  1  0.32369000  0.44529000  0.56516000  1
  H  H31  1  0.68695000  0.73947000  0.63302000  1
  H  H32  1  0.62111000  0.60701000  0.71952000  1
  H  H33  1  0.44529000  0.12160000  0.06516000  1
  H  H34  1  0.73947000  0.05252000  0.13302000  1
  H  H35  1  0.60701000  0.98590000  0.21952000  1
  H  H36  1  0.12160000  0.67631000  0.56516000  1
  H  H37  1  0.05252000  0.31305000  0.63302000  1
  H  H38  1  0.98590000  0.37889000  0.71952000  1
  H  H39  1  0.67631000  0.55471000  0.06516000  1
  H  H40  1  0.31305000  0.26053000  0.13302000  1
  H  H41  1  0.37889000  0.39299000  0.21952000  1
  H  H42  1  0.32369000  0.87840000  0.93484000  1
  H  H43  1  0.68695000  0.94748000  0.86698000  1
  H  H44  1  0.62111000  0.01410000  0.78048000  1
  H  H45  1  0.87840000  0.55471000  0.43484000  1
  H  H46  1  0.94748000  0.26053000  0.36698000  1
  H  H47  1  0.01410000  0.39299000  0.28048000  1
  H  H48  1  0.55471000  0.67631000  0.93484000  1
  H  H49  1  0.26053000  0.31305000  0.86698000  1
  H  H50  1  0.39299000  0.37889000  0.78048000  1
  H  H51  1  0.67631000  0.12160000  0.43484000  1
  H  H52  1  0.31305000  0.05252000  0.36698000  1
  H  H53  1  0.37889000  0.98590000  0.28048000  1
  H  H54  1  0.12160000  0.44529000  0.93484000  1
  H  H55  1  0.05252000  0.73947000  0.86698000  1
  H  H56  1  0.98590000  0.60701000  0.78048000  1
  H  H57  1  0.44529000  0.32369000  0.43484000  1
  H  H58  1  0.73947000  0.68695000  0.36698000  1
  H  H59  1  0.60701000  0.62111000  0.28048000  1
  H  H60  1  0.44529000  0.12160000  0.43484000  1
  H  H61  1  0.73947000  0.05252000  0.36698000  1
  H  H62  1  0.60701000  0.98590000  0.28048000  1
  H  H63  1  0.12160000  0.67631000  0.93484000  1
  H  H64  1  0.05252000  0.31305000  0.86698000  1
  H  H65  1  0.98590000  0.37889000  0.78048000  1
  H  H66  1  0.67631000  0.55471000  0.43484000  1
  H  H67  1  0.31305000  0.26053000  0.36698000  1
  H  H68  1  0.37889000  0.39299000  0.28048000  1
  H  H69  1  0.55471000  0.87840000  0.93484000  1
  H  H70  1  0.26053000  0.94748000  0.86698000  1
  H  H71  1  0.39299000  0.01410000  0.78048000  1
  H  H72  1  0.87840000  0.32369000  0.43484000  1
  H  H73  1  0.94748000  0.68695000  0.36698000  1
  H  H74  1  0.01410000  0.62111000  0.28048000  1
  H  H75  1  0.32369000  0.44529000  0.93484000  1
  H  H76  1  0.68695000  0.73947000  0.86698000  1
  H  H77  1  0.62111000  0.60701000  0.78048000  1
  H  H78  1  0.67631000  0.12160000  0.06516000  1
  H  H79  1  0.31305000  0.05252000  0.13302000  1
  H  H80  1  0.37889000  0.98590000  0.21952000  1
  H  H81  1  0.12160000  0.44529000  0.56516000  1
  H  H82  1  0.05252000  0.73947000  0.63302000  1
  H  H83  1  0.98590000  0.60701000  0.71952000  1
  H  H84  1  0.44529000  0.32369000  0.06516000  1
  H  H85  1  0.73947000  0.68695000  0.13302000  1
  H  H86  1  0.60701000  0.62111000  0.21952000  1
  H  H87  1  0.32369000  0.87840000  0.56516000  1
  H  H88  1  0.68695000  0.94748000  0.63302000  1
  H  H89  1  0.62111000  0.01410000  0.71952000  1
  H  H90  1  0.87840000  0.55471000  0.06516000  1
  H  H91  1  0.94748000  0.26053000  0.13302000  1
  H  H92  1  0.01410000  0.39299000  0.21952000  1
  H  H93  1  0.55471000  0.67631000  0.56516000  1
  H  H94  1  0.26053000  0.31305000  0.63302000  1
  H  H95  1  0.39299000  0.37889000  0.71952000  1
  C  C96  1  0.51260000  0.89830000  0.55450000  1
  C  C97  1  0.32910000  0.89690000  0.67590000  1
  C  C98  1  0.29010000  0.99260000  0.65250000  1
  C  C99  1  0.36290000  0.02920000  0.70010000  1
  C  C100  1  0.32740000  0.97380000  0.67610000  1
  C  C101  1  0.32490000  0.12260000  0.67650000  1
  C  C102  1  0.41040000  0.82080000  0.59600000  1
  C  C103  1  0.43650000  0.87300000  0.56800000  1
  C  C104  1  0.48670000  0.97340000  0.51430000  1
  C  C105  1  0.89830000  0.38570000  0.05450000  1
  C  C106  1  0.89690000  0.56780000  0.17590000  1
  C  C107  1  0.99260000  0.70250000  0.15250000  1
  C  C108  1  0.02920000  0.66630000  0.20010000  1
  C  C109  1  0.97380000  0.64640000  0.17610000  1
  C  C110  1  0.12260000  0.79770000  0.17650000  1
  C  C111  1  0.82080000  0.41040000  0.09600000  1
  C  C112  1  0.87300000  0.43650000  0.06800000  1
  C  C113  1  0.97340000  0.48670000  0.01430000  1
  C  C114  1  0.38570000  0.48740000  0.55450000  1
  C  C115  1  0.56780000  0.67090000  0.67590000  1
  C  C116  1  0.70250000  0.70990000  0.65250000  1
  C  C117  1  0.66630000  0.63710000  0.70010000  1
  C  C118  1  0.64640000  0.67260000  0.67610000  1
  C  C119  1  0.79770000  0.67510000  0.67650000  1
  C  C120  1  0.41040000  0.58960000  0.59600000  1
  C  C121  1  0.43650000  0.56350000  0.56800000  1
  C  C122  1  0.48670000  0.51330000  0.51430000  1
  C  C123  1  0.48740000  0.10170000  0.05450000  1
  C  C124  1  0.67090000  0.10310000  0.17590000  1
  C  C125  1  0.70990000  0.00740000  0.15250000  1
  C  C126  1  0.63710000  0.97080000  0.20010000  1
  C  C127  1  0.67260000  0.02620000  0.17610000  1
  C  C128  1  0.67510000  0.87740000  0.17650000  1
  C  C129  1  0.58960000  0.17920000  0.09600000  1
  C  C130  1  0.56350000  0.12700000  0.06800000  1
  C  C131  1  0.51330000  0.02660000  0.01430000  1
  C  C132  1  0.10170000  0.61430000  0.55450000  1
  C  C133  1  0.10310000  0.43220000  0.67590000  1
  C  C134  1  0.00740000  0.29750000  0.65250000  1
  C  C135  1  0.97080000  0.33370000  0.70010000  1
  C  C136  1  0.02620000  0.35360000  0.67610000  1
  C  C137  1  0.87740000  0.20230000  0.67650000  1
  C  C138  1  0.17920000  0.58960000  0.59600000  1
  C  C139  1  0.12700000  0.56350000  0.56800000  1
  C  C140  1  0.02660000  0.51330000  0.51430000  1
  C  C141  1  0.61430000  0.51260000  0.05450000  1
  C  C142  1  0.43220000  0.32910000  0.17590000  1
  C  C143  1  0.29750000  0.29010000  0.15250000  1
  C  C144  1  0.33370000  0.36290000  0.20010000  1
  C  C145  1  0.35360000  0.32740000  0.17610000  1
  C  C146  1  0.20230000  0.32490000  0.17650000  1
  C  C147  1  0.58960000  0.41040000  0.09600000  1
  C  C148  1  0.56350000  0.43650000  0.06800000  1
  C  C149  1  0.51330000  0.48670000  0.01430000  1
  C  C150  1  0.38570000  0.89830000  0.94550000  1
  C  C151  1  0.56780000  0.89690000  0.82410000  1
  C  C152  1  0.70250000  0.99260000  0.84750000  1
  C  C153  1  0.66630000  0.02920000  0.79990000  1
  C  C154  1  0.64640000  0.97380000  0.82390000  1
  C  C155  1  0.79770000  0.12260000  0.82350000  1
  C  C156  1  0.41040000  0.82080000  0.90400000  1
  C  C157  1  0.43650000  0.87300000  0.93200000  1
  C  C158  1  0.48670000  0.97340000  0.98570000  1
  C  C159  1  0.89830000  0.51260000  0.44550000  1
  C  C160  1  0.89690000  0.32910000  0.32410000  1
  C  C161  1  0.99260000  0.29010000  0.34750000  1
  C  C162  1  0.02920000  0.36290000  0.29990000  1
  C  C163  1  0.97380000  0.32740000  0.32390000  1
  C  C164  1  0.12260000  0.32490000  0.32350000  1
  C  C165  1  0.82080000  0.41040000  0.40400000  1
  C  C166  1  0.87300000  0.43650000  0.43200000  1
  C  C167  1  0.97340000  0.48670000  0.48570000  1
  C  C168  1  0.51260000  0.61430000  0.94550000  1
  C  C169  1  0.32910000  0.43220000  0.82410000  1
  C  C170  1  0.29010000  0.29750000  0.84750000  1
  C  C171  1  0.36290000  0.33370000  0.79990000  1
  C  C172  1  0.32740000  0.35360000  0.82390000  1
  C  C173  1  0.32490000  0.20230000  0.82350000  1
  C  C174  1  0.41040000  0.58960000  0.90400000  1
  C  C175  1  0.43650000  0.56350000  0.93200000  1
  C  C176  1  0.48670000  0.51330000  0.98570000  1
  C  C177  1  0.61430000  0.10170000  0.44550000  1
  C  C178  1  0.43220000  0.10310000  0.32410000  1
  C  C179  1  0.29750000  0.00740000  0.34750000  1
  C  C180  1  0.33370000  0.97080000  0.29990000  1
  C  C181  1  0.35360000  0.02620000  0.32390000  1
  C  C182  1  0.20230000  0.87740000  0.32350000  1
  C  C183  1  0.58960000  0.17920000  0.40400000  1
  C  C184  1  0.56350000  0.12700000  0.43200000  1
  C  C185  1  0.51330000  0.02660000  0.48570000  1
  C  C186  1  0.10170000  0.48740000  0.94550000  1
  C  C187  1  0.10310000  0.67090000  0.82410000  1
  C  C188  1  0.00740000  0.70990000  0.84750000  1
  C  C189  1  0.97080000  0.63710000  0.79990000  1
  C  C190  1  0.02620000  0.67260000  0.82390000  1
  C  C191  1  0.87740000  0.67510000  0.82350000  1
  C  C192  1  0.17920000  0.58960000  0.90400000  1
  C  C193  1  0.12700000  0.56350000  0.93200000  1
  C  C194  1  0.02660000  0.51330000  0.98570000  1
  C  C195  1  0.48740000  0.38570000  0.44550000  1
  C  C196  1  0.67090000  0.56780000  0.32410000  1
  C  C197  1  0.70990000  0.70250000  0.34750000  1
  C  C198  1  0.63710000  0.66630000  0.29990000  1
  C  C199  1  0.67260000  0.64640000  0.32390000  1
  C  C200  1  0.67510000  0.79770000  0.32350000  1
  C  C201  1  0.58960000  0.41040000  0.40400000  1
  C  C202  1  0.56350000  0.43650000  0.43200000  1
  C  C203  1  0.51330000  0.48670000  0.48570000  1
  C  C204  1  0.48740000  0.10170000  0.44550000  1
  C  C205  1  0.67090000  0.10310000  0.32410000  1
  C  C206  1  0.70990000  0.00740000  0.34750000  1
  C  C207  1  0.63710000  0.97080000  0.29990000  1
  C  C208  1  0.67260000  0.02620000  0.32390000  1
  C  C209  1  0.67510000  0.87740000  0.32350000  1
  C  C210  1  0.10170000  0.61430000  0.94550000  1
  C  C211  1  0.10310000  0.43220000  0.82410000  1
  C  C212  1  0.00740000  0.29750000  0.84750000  1
  C  C213  1  0.97080000  0.33370000  0.79990000  1
  C  C214  1  0.02620000  0.35360000  0.82390000  1
  C  C215  1  0.87740000  0.20230000  0.82350000  1
  C  C216  1  0.61430000  0.51260000  0.44550000  1
  C  C217  1  0.43220000  0.32910000  0.32410000  1
  C  C218  1  0.29750000  0.29010000  0.34750000  1
  C  C219  1  0.33370000  0.36290000  0.29990000  1
  C  C220  1  0.35360000  0.32740000  0.32390000  1
  C  C221  1  0.20230000  0.32490000  0.32350000  1
  C  C222  1  0.51260000  0.89830000  0.94550000  1
  C  C223  1  0.32910000  0.89690000  0.82410000  1
  C  C224  1  0.29010000  0.99260000  0.84750000  1
  C  C225  1  0.36290000  0.02920000  0.79990000  1
  C  C226  1  0.32740000  0.97380000  0.82390000  1
  C  C227  1  0.32490000  0.12260000  0.82350000  1
  C  C228  1  0.89830000  0.38570000  0.44550000  1
  C  C229  1  0.89690000  0.56780000  0.32410000  1
  C  C230  1  0.99260000  0.70250000  0.34750000  1
  C  C231  1  0.02920000  0.66630000  0.29990000  1
  C  C232  1  0.97380000  0.64640000  0.32390000  1
  C  C233  1  0.12260000  0.79770000  0.32350000  1
  C  C234  1  0.38570000  0.48740000  0.94550000  1
  C  C235  1  0.56780000  0.67090000  0.82410000  1
  C  C236  1  0.70250000  0.70990000  0.84750000  1
  C  C237  1  0.66630000  0.63710000  0.79990000  1
  C  C238  1  0.64640000  0.67260000  0.82390000  1
  C  C239  1  0.79770000  0.67510000  0.82350000  1
  C  C240  1  0.61430000  0.10170000  0.05450000  1
  C  C241  1  0.43220000  0.10310000  0.17590000  1
  C  C242  1  0.29750000  0.00740000  0.15250000  1
  C  C243  1  0.33370000  0.97080000  0.20010000  1
  C  C244  1  0.35360000  0.02620000  0.17610000  1
  C  C245  1  0.20230000  0.87740000  0.17650000  1
  C  C246  1  0.10170000  0.48740000  0.55450000  1
  C  C247  1  0.10310000  0.67090000  0.67590000  1
  C  C248  1  0.00740000  0.70990000  0.65250000  1
  C  C249  1  0.97080000  0.63710000  0.70010000  1
  C  C250  1  0.02620000  0.67260000  0.67610000  1
  C  C251  1  0.87740000  0.67510000  0.67650000  1
  C  C252  1  0.48740000  0.38570000  0.05450000  1
  C  C253  1  0.67090000  0.56780000  0.17590000  1
  C  C254  1  0.70990000  0.70250000  0.15250000  1
  C  C255  1  0.63710000  0.66630000  0.20010000  1
  C  C256  1  0.67260000  0.64640000  0.17610000  1
  C  C257  1  0.67510000  0.79770000  0.17650000  1
  C  C258  1  0.38570000  0.89830000  0.55450000  1
  C  C259  1  0.56780000  0.89690000  0.67590000  1
  C  C260  1  0.70250000  0.99260000  0.65250000  1
  C  C261  1  0.66630000  0.02920000  0.70010000  1
  C  C262  1  0.64640000  0.97380000  0.67610000  1
  C  C263  1  0.79770000  0.12260000  0.67650000  1
  C  C264  1  0.89830000  0.51260000  0.05450000  1
  C  C265  1  0.89690000  0.32910000  0.17590000  1
  C  C266  1  0.99260000  0.29010000  0.15250000  1
  C  C267  1  0.02920000  0.36290000  0.20010000  1
  C  C268  1  0.97380000  0.32740000  0.17610000  1
  C  C269  1  0.12260000  0.32490000  0.17650000  1
  C  C270  1  0.51260000  0.61430000  0.55450000  1
  C  C271  1  0.32910000  0.43220000  0.67590000  1
  C  C272  1  0.29010000  0.29750000  0.65250000  1
  C  C273  1  0.36290000  0.33370000  0.70010000  1
  C  C274  1  0.32740000  0.35360000  0.67610000  1
  C  C275  1  0.32490000  0.20230000  0.67650000  1
  N  N276  1  0.53720000  0.94730000  0.52830000  1
  N  N277  1  0.36170000  0.10210000  0.70040000  1
  N  N278  1  0.28880000  0.06550000  0.65260000  1
  N  N279  1  0.94730000  0.41010000  0.02830000  1
  N  N280  1  0.10210000  0.74040000  0.20040000  1
  N  N281  1  0.06550000  0.77670000  0.15260000  1
  N  N282  1  0.41010000  0.46280000  0.52830000  1
  N  N283  1  0.74040000  0.63830000  0.70040000  1
  N  N284  1  0.77670000  0.71120000  0.65260000  1
  N  N285  1  0.46280000  0.05270000  0.02830000  1
  N  N286  1  0.63830000  0.89790000  0.20040000  1
  N  N287  1  0.71120000  0.93450000  0.15260000  1
  N  N288  1  0.05270000  0.58990000  0.52830000  1
  N  N289  1  0.89790000  0.25960000  0.70040000  1
  N  N290  1  0.93450000  0.22330000  0.65260000  1
  N  N291  1  0.58990000  0.53720000  0.02830000  1
  N  N292  1  0.25960000  0.36170000  0.20040000  1
  N  N293  1  0.22330000  0.28880000  0.15260000  1
  N  N294  1  0.41010000  0.94730000  0.97170000  1
  N  N295  1  0.74040000  0.10210000  0.79960000  1
  N  N296  1  0.77670000  0.06550000  0.84740000  1
  N  N297  1  0.94730000  0.53720000  0.47170000  1
  N  N298  1  0.10210000  0.36170000  0.29960000  1
  N  N299  1  0.06550000  0.28880000  0.34740000  1
  N  N300  1  0.53720000  0.58990000  0.97170000  1
  N  N301  1  0.36170000  0.25960000  0.79960000  1
  N  N302  1  0.28880000  0.22330000  0.84740000  1
  N  N303  1  0.58990000  0.05270000  0.47170000  1
  N  N304  1  0.25960000  0.89790000  0.29960000  1
  N  N305  1  0.22330000  0.93450000  0.34740000  1
  N  N306  1  0.05270000  0.46280000  0.97170000  1
  N  N307  1  0.89790000  0.63830000  0.79960000  1
  N  N308  1  0.93450000  0.71120000  0.84740000  1
  N  N309  1  0.46280000  0.41010000  0.47170000  1
  N  N310  1  0.63830000  0.74040000  0.29960000  1
  N  N311  1  0.71120000  0.77670000  0.34740000  1
  N  N312  1  0.46280000  0.05270000  0.47170000  1
  N  N313  1  0.63830000  0.89790000  0.29960000  1
  N  N314  1  0.71120000  0.93450000  0.34740000  1
  N  N315  1  0.05270000  0.58990000  0.97170000  1
  N  N316  1  0.89790000  0.25960000  0.79960000  1
  N  N317  1  0.93450000  0.22330000  0.84740000  1
  N  N318  1  0.58990000  0.53720000  0.47170000  1
  N  N319  1  0.25960000  0.36170000  0.29960000  1
  N  N320  1  0.22330000  0.28880000  0.34740000  1
  N  N321  1  0.53720000  0.94730000  0.97170000  1
  N  N322  1  0.36170000  0.10210000  0.79960000  1
  N  N323  1  0.28880000  0.06550000  0.84740000  1
  N  N324  1  0.94730000  0.41010000  0.47170000  1
  N  N325  1  0.10210000  0.74040000  0.29960000  1
  N  N326  1  0.06550000  0.77670000  0.34740000  1
  N  N327  1  0.41010000  0.46280000  0.97170000  1
  N  N328  1  0.74040000  0.63830000  0.79960000  1
  N  N329  1  0.77670000  0.71120000  0.84740000  1
  N  N330  1  0.58990000  0.05270000  0.02830000  1
  N  N331  1  0.25960000  0.89790000  0.20040000  1
  N  N332  1  0.22330000  0.93450000  0.15260000  1
  N  N333  1  0.05270000  0.46280000  0.52830000  1
  N  N334  1  0.89790000  0.63830000  0.70040000  1
  N  N335  1  0.93450000  0.71120000  0.65260000  1
  N  N336  1  0.46280000  0.41010000  0.02830000  1
  N  N337  1  0.63830000  0.74040000  0.20040000  1
  N  N338  1  0.71120000  0.77670000  0.15260000  1
  N  N339  1  0.41010000  0.94730000  0.52830000  1
  N  N340  1  0.74040000  0.10210000  0.70040000  1
  N  N341  1  0.77670000  0.06550000  0.65260000  1
  N  N342  1  0.94730000  0.53720000  0.02830000  1
  N  N343  1  0.10210000  0.36170000  0.20040000  1
  N  N344  1  0.06550000  0.28880000  0.15260000  1
  N  N345  1  0.53720000  0.58990000  0.52830000  1
  N  N346  1  0.36170000  0.25960000  0.70040000  1
  N  N347  1  0.28880000  0.22330000  0.65260000  1
  O  O348  1  0.28890000  0.84490000  0.65480000  1
  O  O349  1  0.37080000  0.88700000  0.69700000  1
  O  O350  1  0.46060000  0.79980000  0.60720000  1
  O  O351  1  0.46400000  0.73200000  0.70390000  1
  O  O352  1  0.39720000  0.79440000  0.65180000  1
  O  O353  1  0.35320000  0.82620000  0.75000000  1
  O  O354  1  0.33333333  0.66666667  0.62500000  1
  O  O355  1  0.33333333  0.66666667  0.72300000  1
  O  O356  1  0.84490000  0.55600000  0.15480000  1
  O  O357  1  0.88700000  0.51620000  0.19700000  1
  O  O358  1  0.79980000  0.33920000  0.10720000  1
  O  O359  1  0.73200000  0.26800000  0.20390000  1
  O  O360  1  0.79440000  0.39720000  0.15180000  1
  O  O361  1  0.82620000  0.47300000  0.25000000  1
  O  O362  1  0.66666667  0.33333333  0.12500000  1
  O  O363  1  0.66666667  0.33333333  0.22300000  1
  O  O364  1  0.55600000  0.71110000  0.65480000  1
  O  O365  1  0.51620000  0.62920000  0.69700000  1
  O  O366  1  0.33920000  0.53940000  0.60720000  1
  O  O367  1  0.26800000  0.53600000  0.70390000  1
  O  O368  1  0.39720000  0.60280000  0.65180000  1
  O  O369  1  0.47300000  0.64680000  0.75000000  1
  O  O370  1  0.71110000  0.15510000  0.15480000  1
  O  O371  1  0.62920000  0.11300000  0.19700000  1
  O  O372  1  0.53940000  0.20020000  0.10720000  1
  O  O373  1  0.53600000  0.26800000  0.20390000  1
  O  O374  1  0.60280000  0.20560000  0.15180000  1
  O  O375  1  0.64680000  0.17380000  0.25000000  1
  O  O376  1  0.15510000  0.44400000  0.65480000  1
  O  O377  1  0.11300000  0.48380000  0.69700000  1
  O  O378  1  0.20020000  0.66080000  0.60720000  1
  O  O379  1  0.26800000  0.73200000  0.70390000  1
  O  O380  1  0.20560000  0.60280000  0.65180000  1
  O  O381  1  0.17380000  0.52700000  0.75000000  1
  O  O382  1  0.44400000  0.28890000  0.15480000  1
  O  O383  1  0.48380000  0.37080000  0.19700000  1
  O  O384  1  0.66080000  0.46060000  0.10720000  1
  O  O385  1  0.73200000  0.46400000  0.20390000  1
  O  O386  1  0.60280000  0.39720000  0.15180000  1
  O  O387  1  0.52700000  0.35320000  0.25000000  1
  O  O388  1  0.55600000  0.84490000  0.84520000  1
  O  O389  1  0.51620000  0.88700000  0.80300000  1
  O  O390  1  0.33920000  0.79980000  0.89280000  1
  O  O391  1  0.26800000  0.73200000  0.79610000  1
  O  O392  1  0.39720000  0.79440000  0.84820000  1
  O  O393  1  0.47300000  0.82620000  0.75000000  1
  O  O394  1  0.33333333  0.66666667  0.87500000  1
  O  O395  1  0.33333333  0.66666667  0.77700000  1
  O  O396  1  0.84490000  0.28890000  0.34520000  1
  O  O397  1  0.88700000  0.37080000  0.30300000  1
  O  O398  1  0.79980000  0.46060000  0.39280000  1
  O  O399  1  0.73200000  0.46400000  0.29610000  1
  O  O400  1  0.79440000  0.39720000  0.34820000  1
  O  O401  1  0.82620000  0.35320000  0.25000000  1
  O  O402  1  0.66666667  0.33333333  0.37500000  1
  O  O403  1  0.66666667  0.33333333  0.27700000  1
  O  O404  1  0.28890000  0.44400000  0.84520000  1
  O  O405  1  0.37080000  0.48380000  0.80300000  1
  O  O406  1  0.46060000  0.66080000  0.89280000  1
  O  O407  1  0.46400000  0.73200000  0.79610000  1
  O  O408  1  0.39720000  0.60280000  0.84820000  1
  O  O409  1  0.35320000  0.52700000  0.75000000  1
  O  O410  1  0.44400000  0.15510000  0.34520000  1
  O  O411  1  0.48380000  0.11300000  0.30300000  1
  O  O412  1  0.66080000  0.20020000  0.39280000  1
  O  O413  1  0.73200000  0.26800000  0.29610000  1
  O  O414  1  0.60280000  0.20560000  0.34820000  1
  O  O415  1  0.52700000  0.17380000  0.25000000  1
  O  O416  1  0.15510000  0.71110000  0.84520000  1
  O  O417  1  0.11300000  0.62920000  0.80300000  1
  O  O418  1  0.20020000  0.53940000  0.89280000  1
  O  O419  1  0.26800000  0.53600000  0.79610000  1
  O  O420  1  0.20560000  0.60280000  0.84820000  1
  O  O421  1  0.17380000  0.64680000  0.75000000  1
  O  O422  1  0.71110000  0.55600000  0.34520000  1
  O  O423  1  0.62920000  0.51620000  0.30300000  1
  O  O424  1  0.53940000  0.33920000  0.39280000  1
  O  O425  1  0.53600000  0.26800000  0.29610000  1
  O  O426  1  0.60280000  0.39720000  0.34820000  1
  O  O427  1  0.64680000  0.47300000  0.25000000  1
  O  O428  1  0.71110000  0.15510000  0.34520000  1
  O  O429  1  0.62920000  0.11300000  0.30300000  1
  O  O430  1  0.53940000  0.20020000  0.39280000  1
  O  O431  1  0.15510000  0.44400000  0.84520000  1
  O  O432  1  0.11300000  0.48380000  0.80300000  1
  O  O433  1  0.20020000  0.66080000  0.89280000  1
  O  O434  1  0.44400000  0.28890000  0.34520000  1
  O  O435  1  0.48380000  0.37080000  0.30300000  1
  O  O436  1  0.66080000  0.46060000  0.39280000  1
  O  O437  1  0.28890000  0.84490000  0.84520000  1
  O  O438  1  0.37080000  0.88700000  0.80300000  1
  O  O439  1  0.46060000  0.79980000  0.89280000  1
  O  O440  1  0.84490000  0.55600000  0.34520000  1
  O  O441  1  0.88700000  0.51620000  0.30300000  1
  O  O442  1  0.79980000  0.33920000  0.39280000  1
  O  O443  1  0.55600000  0.71110000  0.84520000  1
  O  O444  1  0.51620000  0.62920000  0.80300000  1
  O  O445  1  0.33920000  0.53940000  0.89280000  1
  O  O446  1  0.44400000  0.15510000  0.15480000  1
  O  O447  1  0.48380000  0.11300000  0.19700000  1
  O  O448  1  0.66080000  0.20020000  0.10720000  1
  O  O449  1  0.15510000  0.71110000  0.65480000  1
  O  O450  1  0.11300000  0.62920000  0.69700000  1
  O  O451  1  0.20020000  0.53940000  0.60720000  1
  O  O452  1  0.71110000  0.55600000  0.15480000  1
  O  O453  1  0.62920000  0.51620000  0.19700000  1
  O  O454  1  0.53940000  0.33920000  0.10720000  1
  O  O455  1  0.55600000  0.84490000  0.65480000  1
  O  O456  1  0.51620000  0.88700000  0.69700000  1
  O  O457  1  0.33920000  0.79980000  0.60720000  1
  O  O458  1  0.84490000  0.28890000  0.15480000  1
  O  O459  1  0.88700000  0.37080000  0.19700000  1
  O  O460  1  0.79980000  0.46060000  0.10720000  1
  O  O461  1  0.28890000  0.44400000  0.65480000  1
  O  O462  1  0.37080000  0.48380000  0.69700000  1
  O  O463  1  0.46060000  0.66080000  0.60720000  1
