# generated using pymatgen
data_Zr3H24(C27O8)2
_symmetry_space_group_name_H-M   'P 1'
_cell_length_a   23.80432552
_cell_length_b   23.80432552
_cell_length_c   23.80432552
_cell_angle_alpha   60.00000000
_cell_angle_beta   60.00000000
_cell_angle_gamma   60.00000000
_symmetry_Int_Tables_number   1
_chemical_formula_structural   Zr3H24(C27O8)2
_chemical_formula_sum   'Zr6 H48 C108 O32'
_cell_volume   9537.89734824
_cell_formula_units_Z   2
loop_
 _symmetry_equiv_pos_site_id
 _symmetry_equiv_pos_as_xyz
  1  'x, y, z'
loop_
 _atom_site_type_symbol
 _atom_site_label
 _atom_site_symmetry_multiplicity
 _atom_site_fract_x
 _atom_site_fract_y
 _atom_site_fract_z
 _atom_site_occupancy
  C  C0  1  0.22510000  0.77490000  0.55070000  1
  C  C1  1  0.16680000  0.83320000  0.55080000  1
  C  C2  1  0.31460000  0.68540000  0.50000000  1
  C  C3  1  0.25420000  0.74580000  0.50000000  1
  C  C4  1  0.13740000  0.86260000  0.50000000  1
  C  C5  1  0.07720000  0.92280000  0.50000000  1
  C  C6  1  0.02680000  0.97320000  0.50000000  1
  C  C7  1  0.44930000  0.77490000  0.55070000  1
  C  C8  1  0.44920000  0.83320000  0.55080000  1
  C  C9  1  0.50000000  0.68540000  0.50000000  1
  C  C10  1  0.50000000  0.74580000  0.50000000  1
  C  C11  1  0.50000000  0.86260000  0.50000000  1
  C  C12  1  0.50000000  0.92280000  0.50000000  1
  C  C13  1  0.50000000  0.97320000  0.50000000  1
  C  C14  1  0.44930000  0.55070000  0.77490000  1
  C  C15  1  0.44920000  0.55080000  0.83320000  1
  C  C16  1  0.50000000  0.50000000  0.68540000  1
  C  C17  1  0.50000000  0.50000000  0.74580000  1
  C  C18  1  0.50000000  0.50000000  0.86260000  1
  C  C19  1  0.50000000  0.50000000  0.92280000  1
  C  C20  1  0.50000000  0.50000000  0.97320000  1
  C  C21  1  0.22510000  0.55070000  0.77490000  1
  C  C22  1  0.16680000  0.55080000  0.83320000  1
  C  C23  1  0.31460000  0.50000000  0.68540000  1
  C  C24  1  0.25420000  0.50000000  0.74580000  1
  C  C25  1  0.13740000  0.50000000  0.86260000  1
  C  C26  1  0.07720000  0.50000000  0.92280000  1
  C  C27  1  0.02680000  0.50000000  0.97320000  1
  C  C28  1  0.77490000  0.22510000  0.44930000  1
  C  C29  1  0.83320000  0.16680000  0.44920000  1
  C  C30  1  0.68540000  0.31460000  0.50000000  1
  C  C31  1  0.74580000  0.25420000  0.50000000  1
  C  C32  1  0.86260000  0.13740000  0.50000000  1
  C  C33  1  0.92280000  0.07720000  0.50000000  1
  C  C34  1  0.97320000  0.02680000  0.50000000  1
  C  C35  1  0.55070000  0.22510000  0.44930000  1
  C  C36  1  0.55080000  0.16680000  0.44920000  1
  C  C37  1  0.50000000  0.31460000  0.50000000  1
  C  C38  1  0.50000000  0.25420000  0.50000000  1
  C  C39  1  0.50000000  0.13740000  0.50000000  1
  C  C40  1  0.50000000  0.07720000  0.50000000  1
  C  C41  1  0.50000000  0.02680000  0.50000000  1
  C  C42  1  0.55070000  0.44930000  0.22510000  1
  C  C43  1  0.55080000  0.44920000  0.16680000  1
  C  C44  1  0.50000000  0.50000000  0.31460000  1
  C  C45  1  0.50000000  0.50000000  0.25420000  1
  C  C46  1  0.50000000  0.50000000  0.13740000  1
  C  C47  1  0.50000000  0.50000000  0.07720000  1
  C  C48  1  0.50000000  0.50000000  0.02680000  1
  C  C49  1  0.77490000  0.44930000  0.22510000  1
  C  C50  1  0.83320000  0.44920000  0.16680000  1
  C  C51  1  0.68540000  0.50000000  0.31460000  1
  C  C52  1  0.74580000  0.50000000  0.25420000  1
  C  C53  1  0.86260000  0.50000000  0.13740000  1
  C  C54  1  0.92280000  0.50000000  0.07720000  1
  C  C55  1  0.97320000  0.50000000  0.02680000  1
  C  C56  1  0.77490000  0.55070000  0.22510000  1
  C  C57  1  0.83320000  0.55080000  0.16680000  1
  C  C58  1  0.77490000  0.22510000  0.55070000  1
  C  C59  1  0.83320000  0.16680000  0.55080000  1
  C  C60  1  0.44930000  0.22510000  0.55070000  1
  C  C61  1  0.44920000  0.16680000  0.55080000  1
  C  C62  1  0.44930000  0.55070000  0.22510000  1
  C  C63  1  0.44920000  0.55080000  0.16680000  1
  C  C64  1  0.55070000  0.77490000  0.44930000  1
  C  C65  1  0.55080000  0.83320000  0.44920000  1
  C  C66  1  0.55070000  0.44930000  0.77490000  1
  C  C67  1  0.55080000  0.44920000  0.83320000  1
  C  C68  1  0.22510000  0.44930000  0.77490000  1
  C  C69  1  0.16680000  0.44920000  0.83320000  1
  C  C70  1  0.22510000  0.77490000  0.44930000  1
  C  C71  1  0.16680000  0.83320000  0.44920000  1
  C  C72  1  0.55070000  0.22510000  0.77490000  1
  C  C73  1  0.55080000  0.16680000  0.83320000  1
  C  C74  1  0.50000000  0.31460000  0.68540000  1
  C  C75  1  0.50000000  0.25420000  0.74580000  1
  C  C76  1  0.50000000  0.13740000  0.86260000  1
  C  C77  1  0.50000000  0.07720000  0.92280000  1
  C  C78  1  0.50000000  0.02680000  0.97320000  1
  C  C79  1  0.22510000  0.55070000  0.44930000  1
  C  C80  1  0.16680000  0.55080000  0.44920000  1
  C  C81  1  0.31460000  0.50000000  0.50000000  1
  C  C82  1  0.25420000  0.50000000  0.50000000  1
  C  C83  1  0.13740000  0.50000000  0.50000000  1
  C  C84  1  0.07720000  0.50000000  0.50000000  1
  C  C85  1  0.02680000  0.50000000  0.50000000  1
  C  C86  1  0.55070000  0.77490000  0.22510000  1
  C  C87  1  0.55080000  0.83320000  0.16680000  1
  C  C88  1  0.50000000  0.68540000  0.31460000  1
  C  C89  1  0.50000000  0.74580000  0.25420000  1
  C  C90  1  0.50000000  0.86260000  0.13740000  1
  C  C91  1  0.50000000  0.92280000  0.07720000  1
  C  C92  1  0.50000000  0.97320000  0.02680000  1
  C  C93  1  0.77490000  0.44930000  0.55070000  1
  C  C94  1  0.83320000  0.44920000  0.55080000  1
  C  C95  1  0.68540000  0.50000000  0.50000000  1
  C  C96  1  0.74580000  0.50000000  0.50000000  1
  C  C97  1  0.86260000  0.50000000  0.50000000  1
  C  C98  1  0.92280000  0.50000000  0.50000000  1
  C  C99  1  0.97320000  0.50000000  0.50000000  1
  C  C100  1  0.44930000  0.22510000  0.77490000  1
  C  C101  1  0.44920000  0.16680000  0.83320000  1
  C  C102  1  0.44930000  0.77490000  0.22510000  1
  C  C103  1  0.44920000  0.83320000  0.16680000  1
  C  C104  1  0.77490000  0.55070000  0.44930000  1
  C  C105  1  0.83320000  0.55080000  0.44920000  1
  C  C106  1  0.22510000  0.44930000  0.55070000  1
  C  C107  1  0.16680000  0.44920000  0.55080000  1
  H  H108  1  0.24510000  0.75490000  0.58530000  1
  H  H109  1  0.14680000  0.85320000  0.58540000  1
  H  H110  1  0.41470000  0.75490000  0.58530000  1
  H  H111  1  0.41460000  0.85320000  0.58540000  1
  H  H112  1  0.41470000  0.58530000  0.75490000  1
  H  H113  1  0.41460000  0.58540000  0.85320000  1
  H  H114  1  0.24510000  0.58530000  0.75490000  1
  H  H115  1  0.14680000  0.58540000  0.85320000  1
  H  H116  1  0.75490000  0.24510000  0.41470000  1
  H  H117  1  0.85320000  0.14680000  0.41460000  1
  H  H118  1  0.58530000  0.24510000  0.41470000  1
  H  H119  1  0.58540000  0.14680000  0.41460000  1
  H  H120  1  0.58530000  0.41470000  0.24510000  1
  H  H121  1  0.58540000  0.41460000  0.14680000  1
  H  H122  1  0.75490000  0.41470000  0.24510000  1
  H  H123  1  0.85320000  0.41460000  0.14680000  1
  H  H124  1  0.75490000  0.58530000  0.24510000  1
  H  H125  1  0.85320000  0.58540000  0.14680000  1
  H  H126  1  0.75490000  0.24510000  0.58530000  1
  H  H127  1  0.85320000  0.14680000  0.58540000  1
  H  H128  1  0.41470000  0.24510000  0.58530000  1
  H  H129  1  0.41460000  0.14680000  0.58540000  1
  H  H130  1  0.41470000  0.58530000  0.24510000  1
  H  H131  1  0.41460000  0.58540000  0.14680000  1
  H  H132  1  0.58530000  0.75490000  0.41470000  1
  H  H133  1  0.58540000  0.85320000  0.41460000  1
  H  H134  1  0.58530000  0.41470000  0.75490000  1
  H  H135  1  0.58540000  0.41460000  0.85320000  1
  H  H136  1  0.24510000  0.41470000  0.75490000  1
  H  H137  1  0.14680000  0.41460000  0.85320000  1
  H  H138  1  0.24510000  0.75490000  0.41470000  1
  H  H139  1  0.14680000  0.85320000  0.41460000  1
  H  H140  1  0.58530000  0.24510000  0.75490000  1
  H  H141  1  0.58540000  0.14680000  0.85320000  1
  H  H142  1  0.24510000  0.58530000  0.41470000  1
  H  H143  1  0.14680000  0.58540000  0.41460000  1
  H  H144  1  0.58530000  0.75490000  0.24510000  1
  H  H145  1  0.58540000  0.85320000  0.14680000  1
  H  H146  1  0.75490000  0.41470000  0.58530000  1
  H  H147  1  0.85320000  0.41460000  0.58540000  1
  H  H148  1  0.41470000  0.24510000  0.75490000  1
  H  H149  1  0.41460000  0.14680000  0.85320000  1
  H  H150  1  0.41470000  0.75490000  0.24510000  1
  H  H151  1  0.41460000  0.85320000  0.14680000  1
  H  H152  1  0.75490000  0.58530000  0.41470000  1
  H  H153  1  0.85320000  0.58540000  0.41460000  1
  H  H154  1  0.24510000  0.41470000  0.58530000  1
  H  H155  1  0.14680000  0.41460000  0.58540000  1
  O  O156  1  0.46360000  0.46360000  0.60920000  1
  O  O157  1  0.33680000  0.66320000  0.54920000  1
  O  O158  1  0.39080000  0.53640000  0.53640000  1
  O  O159  1  0.45080000  0.66320000  0.54920000  1
  O  O160  1  0.46360000  0.60920000  0.46360000  1
  O  O161  1  0.45080000  0.54920000  0.66320000  1
  O  O162  1  0.53640000  0.53640000  0.53640000  1
  O  O163  1  0.33680000  0.54920000  0.66320000  1
  O  O164  1  0.46360000  0.46360000  0.46360000  1
  O  O165  1  0.66320000  0.33680000  0.45080000  1
  O  O166  1  0.53640000  0.53640000  0.39080000  1
  O  O167  1  0.54920000  0.33680000  0.45080000  1
  O  O168  1  0.60920000  0.46360000  0.46360000  1
  O  O169  1  0.54920000  0.45080000  0.33680000  1
  O  O170  1  0.53640000  0.39080000  0.53640000  1
  O  O171  1  0.66320000  0.45080000  0.33680000  1
  O  O172  1  0.66320000  0.54920000  0.33680000  1
  O  O173  1  0.66320000  0.33680000  0.54920000  1
  O  O174  1  0.45080000  0.33680000  0.54920000  1
  O  O175  1  0.45080000  0.54920000  0.33680000  1
  O  O176  1  0.54920000  0.66320000  0.45080000  1
  O  O177  1  0.54920000  0.45080000  0.66320000  1
  O  O178  1  0.33680000  0.45080000  0.66320000  1
  O  O179  1  0.33680000  0.66320000  0.45080000  1
  O  O180  1  0.54920000  0.33680000  0.66320000  1
  O  O181  1  0.33680000  0.54920000  0.45080000  1
  O  O182  1  0.54920000  0.66320000  0.33680000  1
  O  O183  1  0.66320000  0.45080000  0.54920000  1
  O  O184  1  0.45080000  0.33680000  0.66320000  1
  O  O185  1  0.45080000  0.66320000  0.33680000  1
  O  O186  1  0.66320000  0.54920000  0.45080000  1
  O  O187  1  0.33680000  0.45080000  0.54920000  1
  Zr  Zr188  1  0.42682000  0.57318000  0.57318000  1
  Zr  Zr189  1  0.57318000  0.42682000  0.42682000  1
  Zr  Zr190  1  0.57318000  0.57318000  0.42682000  1
  Zr  Zr191  1  0.57318000  0.42682000  0.57318000  1
  Zr  Zr192  1  0.42682000  0.42682000  0.57318000  1
  Zr  Zr193  1  0.42682000  0.57318000  0.42682000  1
