# generated using pymatgen
data_Zr3H12(C3O2)8
_symmetry_space_group_name_H-M   'P 1'
_cell_length_a   14.66900000
_cell_length_b   14.66900000
_cell_length_c   26.84780000
_cell_angle_alpha   90.00000000
_cell_angle_beta   90.00000000
_cell_angle_gamma   120.00000000
_symmetry_Int_Tables_number   1
_chemical_formula_structural   Zr3H12(C3O2)8
_chemical_formula_sum   'Zr12 H48 C96 O64'
_cell_volume   5003.11347038
_cell_formula_units_Z   4
loop_
 _symmetry_equiv_pos_site_id
 _symmetry_equiv_pos_as_xyz
  1  'x, y, z'
loop_
 _atom_site_type_symbol
 _atom_site_label
 _atom_site_symmetry_multiplicity
 _atom_site_fract_x
 _atom_site_fract_y
 _atom_site_fract_z
 _atom_site_occupancy
  Zr  Zr0  1  0.16000000  0.07999000  0.94542000  1
  Zr  Zr1  1  0.91999000  0.84000000  0.94542000  1
  Zr  Zr2  1  0.92001000  0.08001000  0.94542000  1
  Zr  Zr3  1  0.91999000  0.07999000  0.55458000  1
  Zr  Zr4  1  0.16000000  0.08001000  0.55458000  1
  Zr  Zr5  1  0.92001000  0.84000000  0.55458000  1
  Zr  Zr6  1  0.07999000  0.91999000  0.44542000  1
  Zr  Zr7  1  0.84000000  0.92001000  0.44542000  1
  Zr  Zr8  1  0.08001000  0.16000000  0.44542000  1
  Zr  Zr9  1  0.07999000  0.16000000  0.05458000  1
  Zr  Zr10  1  0.08001000  0.92001000  0.05458000  1
  Zr  Zr11  1  0.84000000  0.91999000  0.05458000  1
  H  H12  1  0.45000000  0.38040000  0.92650000  1
  H  H13  1  0.25000000  0.05000000  0.79500000  1
  H  H14  1  0.38040000  0.45000000  0.07350000  1
  H  H15  1  0.55000000  0.61960000  0.07350000  1
  H  H16  1  0.61960000  0.55000000  0.92650000  1
  H  H17  1  0.25000000  0.05000000  0.70500000  1
  H  H18  1  0.95000000  0.75000000  0.79500000  1
  H  H19  1  0.95000000  0.75000000  0.70500000  1
  H  H20  1  0.93040000  0.55000000  0.92650000  1
  H  H21  1  0.80000000  0.75000000  0.79500000  1
  H  H22  1  0.06960000  0.61960000  0.07350000  1
  H  H23  1  0.06960000  0.45000000  0.07350000  1
  H  H24  1  0.93040000  0.38040000  0.92650000  1
  H  H25  1  0.80000000  0.75000000  0.70500000  1
  H  H26  1  0.80000000  0.05000000  0.79500000  1
  H  H27  1  0.80000000  0.05000000  0.70500000  1
  H  H28  1  0.61960000  0.06960000  0.92650000  1
  H  H29  1  0.95000000  0.20000000  0.79500000  1
  H  H30  1  0.55000000  0.93040000  0.07350000  1
  H  H31  1  0.38040000  0.93040000  0.07350000  1
  H  H32  1  0.45000000  0.06960000  0.92650000  1
  H  H33  1  0.95000000  0.20000000  0.70500000  1
  H  H34  1  0.25000000  0.20000000  0.79500000  1
  H  H35  1  0.25000000  0.20000000  0.70500000  1
  H  H36  1  0.38040000  0.93040000  0.42650000  1
  H  H37  1  0.05000000  0.80000000  0.29500000  1
  H  H38  1  0.45000000  0.06960000  0.57350000  1
  H  H39  1  0.61960000  0.06960000  0.57350000  1
  H  H40  1  0.55000000  0.93040000  0.42650000  1
  H  H41  1  0.05000000  0.80000000  0.20500000  1
  H  H42  1  0.75000000  0.80000000  0.29500000  1
  H  H43  1  0.75000000  0.80000000  0.20500000  1
  H  H44  1  0.55000000  0.61960000  0.42650000  1
  H  H45  1  0.75000000  0.95000000  0.29500000  1
  H  H46  1  0.61960000  0.55000000  0.57350000  1
  H  H47  1  0.45000000  0.38040000  0.57350000  1
  H  H48  1  0.38040000  0.45000000  0.42650000  1
  H  H49  1  0.75000000  0.95000000  0.20500000  1
  H  H50  1  0.05000000  0.25000000  0.29500000  1
  H  H51  1  0.05000000  0.25000000  0.20500000  1
  H  H52  1  0.06960000  0.45000000  0.42650000  1
  H  H53  1  0.20000000  0.25000000  0.29500000  1
  H  H54  1  0.93040000  0.38040000  0.57350000  1
  H  H55  1  0.93040000  0.55000000  0.57350000  1
  H  H56  1  0.06960000  0.61960000  0.42650000  1
  H  H57  1  0.20000000  0.25000000  0.20500000  1
  H  H58  1  0.20000000  0.95000000  0.29500000  1
  H  H59  1  0.20000000  0.95000000  0.20500000  1
  C  C60  1  0.47180000  0.43260000  0.95860000  1
  C  C61  1  0.40300000  0.40300000  0.00000000  1
  C  C62  1  0.30100000  0.30100000  0.00000000  1
  C  C63  1  0.18800000  0.97800000  0.77550000  1
  C  C64  1  0.10650000  0.89350000  0.80100000  1
  C  C65  1  0.09810000  0.90210000  0.85460000  1
  C  C66  1  0.43260000  0.47180000  0.04140000  1
  C  C67  1  0.52820000  0.56740000  0.04140000  1
  C  C68  1  0.59700000  0.59700000  0.00000000  1
  C  C69  1  0.69900000  0.69900000  0.00000000  1
  C  C70  1  0.56740000  0.52820000  0.95860000  1
  C  C71  1  0.18800000  0.97800000  0.72450000  1
  C  C72  1  0.10650000  0.89350000  0.69900000  1
  C  C73  1  0.09790000  0.90190000  0.64540000  1
  C  C74  1  0.02200000  0.81200000  0.77550000  1
  C  C75  1  0.02200000  0.81200000  0.72450000  1
  C  C76  1  0.96080000  0.52820000  0.95860000  1
  C  C77  1  0.00000000  0.59700000  1.00000000  1
  C  C78  1  0.00000000  0.69900000  1.00000000  1
  C  C79  1  0.79000000  0.81200000  0.77550000  1
  C  C80  1  0.78700000  0.89350000  0.80100000  1
  C  C81  1  0.80400000  0.90190000  0.85460000  1
  C  C82  1  0.03920000  0.56740000  0.04140000  1
  C  C83  1  0.03920000  0.47180000  0.04140000  1
  C  C84  1  0.00000000  0.40300000  1.00000000  1
  C  C85  1  0.00000000  0.30100000  1.00000000  1
  C  C86  1  0.96080000  0.43260000  0.95860000  1
  C  C87  1  0.79000000  0.81200000  0.72450000  1
  C  C88  1  0.78700000  0.89350000  0.69900000  1
  C  C89  1  0.80400000  0.90210000  0.64540000  1
  C  C90  1  0.79000000  0.97800000  0.77550000  1
  C  C91  1  0.79000000  0.97800000  0.72450000  1
  C  C92  1  0.56740000  0.03920000  0.95860000  1
  C  C93  1  0.59700000  1.00000000  0.00000000  1
  C  C94  1  0.69900000  1.00000000  0.00000000  1
  C  C95  1  0.02200000  0.21000000  0.77550000  1
  C  C96  1  0.10650000  0.21300000  0.80100000  1
  C  C97  1  0.09790000  0.19600000  0.85460000  1
  C  C98  1  0.52820000  0.96080000  0.04140000  1
  C  C99  1  0.43260000  0.96080000  0.04140000  1
  C  C100  1  0.40300000  1.00000000  0.00000000  1
  C  C101  1  0.30100000  1.00000000  0.00000000  1
  C  C102  1  0.47180000  0.03920000  0.95860000  1
  C  C103  1  0.02200000  0.21000000  0.72450000  1
  C  C104  1  0.10650000  0.21300000  0.69900000  1
  C  C105  1  0.09810000  0.19600000  0.64540000  1
  C  C106  1  0.18800000  0.21000000  0.77550000  1
  C  C107  1  0.18800000  0.21000000  0.72450000  1
  C  C108  1  0.43260000  0.96080000  0.45860000  1
  C  C109  1  0.40300000  1.00000000  0.50000000  1
  C  C110  1  0.30100000  1.00000000  0.50000000  1
  C  C111  1  0.97800000  0.79000000  0.27550000  1
  C  C112  1  0.89350000  0.78700000  0.30100000  1
  C  C113  1  0.90210000  0.80400000  0.35460000  1
  C  C114  1  0.47180000  0.03920000  0.54140000  1
  C  C115  1  0.56740000  0.03920000  0.54140000  1
  C  C116  1  0.59700000  1.00000000  0.50000000  1
  C  C117  1  0.69900000  1.00000000  0.50000000  1
  C  C118  1  0.52820000  0.96080000  0.45860000  1
  C  C119  1  0.97800000  0.79000000  0.22450000  1
  C  C120  1  0.89350000  0.78700000  0.19900000  1
  C  C121  1  0.90190000  0.80400000  0.14540000  1
  C  C122  1  0.81200000  0.79000000  0.27550000  1
  C  C123  1  0.81200000  0.79000000  0.22450000  1
  C  C124  1  0.52820000  0.56740000  0.45860000  1
  C  C125  1  0.59700000  0.59700000  0.50000000  1
  C  C126  1  0.69900000  0.69900000  0.50000000  1
  C  C127  1  0.81200000  0.02200000  0.27550000  1
  C  C128  1  0.89350000  0.10650000  0.30100000  1
  C  C129  1  0.90190000  0.09790000  0.35460000  1
  C  C130  1  0.56740000  0.52820000  0.54140000  1
  C  C131  1  0.47180000  0.43260000  0.54140000  1
  C  C132  1  0.40300000  0.40300000  0.50000000  1
  C  C133  1  0.30100000  0.30100000  0.50000000  1
  C  C134  1  0.43260000  0.47180000  0.45860000  1
  C  C135  1  0.81200000  0.02200000  0.22450000  1
  C  C136  1  0.89350000  0.10650000  0.19900000  1
  C  C137  1  0.90210000  0.09810000  0.14540000  1
  C  C138  1  0.97800000  0.18800000  0.27550000  1
  C  C139  1  0.97800000  0.18800000  0.22450000  1
  C  C140  1  0.03920000  0.47180000  0.45860000  1
  C  C141  1  0.00000000  0.40300000  0.50000000  1
  C  C142  1  0.00000000  0.30100000  0.50000000  1
  C  C143  1  0.21000000  0.18800000  0.27550000  1
  C  C144  1  0.21300000  0.10650000  0.30100000  1
  C  C145  1  0.19600000  0.09810000  0.35460000  1
  C  C146  1  0.96080000  0.43260000  0.54140000  1
  C  C147  1  0.96080000  0.52820000  0.54140000  1
  C  C148  1  0.00000000  0.59700000  0.50000000  1
  C  C149  1  0.00000000  0.69900000  0.50000000  1
  C  C150  1  0.03920000  0.56740000  0.45860000  1
  C  C151  1  0.21000000  0.18800000  0.22450000  1
  C  C152  1  0.21300000  0.10650000  0.19900000  1
  C  C153  1  0.19600000  0.09790000  0.14540000  1
  C  C154  1  0.21000000  0.02200000  0.27550000  1
  C  C155  1  0.21000000  0.02200000  0.22450000  1
  O  O156  1  0.16790000  0.08390000  0.02740000  1
  O  O157  1  0.00000000  0.00000000  0.91340000  1
  O  O158  1  0.27700000  0.24200000  0.96290000  1
  O  O159  1  0.16000000  0.99000000  0.87600000  1
  O  O160  1  0.24200000  0.27700000  0.03710000  1
  O  O161  1  0.72300000  0.75800000  0.03710000  1
  O  O162  1  0.75800000  0.72300000  0.96290000  1
  O  O163  1  0.16000000  0.99000000  0.62400000  1
  O  O164  1  0.01000000  0.84000000  0.87600000  1
  O  O165  1  0.01000000  0.84000000  0.62400000  1
  O  O166  1  0.91600000  0.83210000  0.02740000  1
  O  O167  1  0.96500000  0.72300000  0.96290000  1
  O  O168  1  0.83000000  0.84000000  0.87600000  1
  O  O169  1  0.03500000  0.75800000  0.03710000  1
  O  O170  1  0.03500000  0.27700000  0.03710000  1
  O  O171  1  0.96500000  0.24200000  0.96290000  1
  O  O172  1  0.83000000  0.84000000  0.62400000  1
  O  O173  1  0.83000000  0.99000000  0.87600000  1
  O  O174  1  0.83000000  0.99000000  0.62400000  1
  O  O175  1  0.91610000  0.08400000  0.02740000  1
  O  O176  1  0.75800000  0.03500000  0.96290000  1
  O  O177  1  0.01000000  0.17000000  0.87600000  1
  O  O178  1  0.72300000  0.96500000  0.03710000  1
  O  O179  1  0.24200000  0.96500000  0.03710000  1
  O  O180  1  0.27700000  0.03500000  0.96290000  1
  O  O181  1  0.01000000  0.17000000  0.62400000  1
  O  O182  1  0.16000000  0.17000000  0.87600000  1
  O  O183  1  0.16000000  0.17000000  0.62400000  1
  O  O184  1  0.91600000  0.08390000  0.47260000  1
  O  O185  1  0.16790000  0.08400000  0.47260000  1
  O  O186  1  0.00000000  0.00000000  0.58660000  1
  O  O187  1  0.91610000  0.83210000  0.47260000  1
  O  O188  1  0.08390000  0.91600000  0.52740000  1
  O  O189  1  0.83210000  0.91610000  0.52740000  1
  O  O190  1  0.08400000  0.16790000  0.52740000  1
  O  O191  1  0.08390000  0.16790000  0.97260000  1
  O  O192  1  0.08400000  0.91610000  0.97260000  1
  O  O193  1  0.83210000  0.91600000  0.97260000  1
  O  O194  1  0.96500000  0.24200000  0.53710000  1
  O  O195  1  0.27700000  0.03500000  0.53710000  1
  O  O196  1  0.75800000  0.72300000  0.53710000  1
  O  O197  1  0.75800000  0.03500000  0.53710000  1
  O  O198  1  0.27700000  0.24200000  0.53710000  1
  O  O199  1  0.96500000  0.72300000  0.53710000  1
  O  O200  1  0.00000000  0.00000000  0.41340000  1
  O  O201  1  0.24200000  0.96500000  0.46290000  1
  O  O202  1  0.99000000  0.83000000  0.37600000  1
  O  O203  1  0.72300000  0.96500000  0.46290000  1
  O  O204  1  0.99000000  0.83000000  0.12400000  1
  O  O205  1  0.84000000  0.83000000  0.37600000  1
  O  O206  1  0.84000000  0.83000000  0.12400000  1
  O  O207  1  0.72300000  0.75800000  0.46290000  1
  O  O208  1  0.84000000  0.01000000  0.37600000  1
  O  O209  1  0.24200000  0.27700000  0.46290000  1
  O  O210  1  0.84000000  0.01000000  0.12400000  1
  O  O211  1  0.99000000  0.16000000  0.37600000  1
  O  O212  1  0.99000000  0.16000000  0.12400000  1
  O  O213  1  0.03500000  0.27700000  0.46290000  1
  O  O214  1  0.17000000  0.16000000  0.37600000  1
  O  O215  1  0.03500000  0.75800000  0.46290000  1
  O  O216  1  0.17000000  0.16000000  0.12400000  1
  O  O217  1  0.17000000  0.01000000  0.37600000  1
  O  O218  1  0.17000000  0.01000000  0.12400000  1
  O  O219  1  0.00000000  0.00000000  0.08660000  1
