# generated using pymatgen
data_Zr3H44C76(NO2)8
_symmetry_space_group_name_H-M   'P 1'
_cell_length_a   24.41200000
_cell_length_b   30.62100000
_cell_length_c   31.74839323
_cell_angle_alpha   118.83212142
_cell_angle_beta   90.00000000
_cell_angle_gamma   90.00000000
_symmetry_Int_Tables_number   1
_chemical_formula_structural   Zr3H44C76(NO2)8
_chemical_formula_sum   'Zr12 H176 C304 N32 O64'
_cell_volume   20790.58276371
_cell_formula_units_Z   4
loop_
 _symmetry_equiv_pos_site_id
 _symmetry_equiv_pos_as_xyz
  1  'x, y, z'
loop_
 _atom_site_type_symbol
 _atom_site_label
 _atom_site_symmetry_multiplicity
 _atom_site_fract_x
 _atom_site_fract_y
 _atom_site_fract_z
 _atom_site_occupancy
  C  C0  1  0.84380000  0.90935000  0.68290000  1
  C  C1  1  0.87800000  0.94980000  0.72180000  1
  C  C2  1  0.86790000  0.96173000  0.77046000  1
  C  C3  1  0.91820000  0.97257000  0.71154000  1
  C  C4  1  0.89890000  0.99785000  0.80590000  1
  C  C5  1  0.95080000  0.00883000  0.74746000  1
  C  C6  1  0.94160000  0.02131000  0.79502000  1
  C  C7  1  0.97540000  0.07510000  0.87940000  1
  C  C8  1  0.02620000  0.10985000  0.90530000  1
  C  C9  1  0.05160000  0.13623000  0.89026000  1
  C  C10  1  0.03630000  0.10800000  0.94620000  1
  C  C11  1  0.09400000  0.16855000  0.92050000  1
  C  C12  1  0.07770000  0.14151000  0.97442000  1
  C  C13  1  0.10650000  0.17172000  0.96184000  1
  C  C14  1  0.15020000  0.20530000  0.99500000  1
  C  C15  1  0.20520000  0.19192000  0.98144000  1
  C  C16  1  0.13250000  0.24568000  0.03836000  1
  C  C17  1  0.22226000  0.15014000  0.93828000  1
  C  C18  1  0.07600000  0.26105000  0.05090000  1
  C  C19  1  0.13330000  0.31334000  0.10868000  1
  C  C20  1  0.07670000  0.30061000  0.09422000  1
  C  C21  1  0.15030000  0.35504000  0.15068000  1
  C  C22  1  0.20520000  0.36857000  0.16454000  1
  C  C23  1  0.10540000  0.38860000  0.18480000  1
  C  C24  1  0.22224000  0.40989000  0.20738000  1
  C  C25  1  0.08580000  0.37340000  0.21300000  1
  C  C26  1  0.09510000  0.43100000  0.18800000  1
  C  C27  1  0.04550000  0.39890000  0.25200000  1
  C  C28  1  0.05400000  0.45850000  0.22680000  1
  C  C29  1  0.02620000  0.44110000  0.25160000  1
  C  C30  1  0.99430000  0.46010000  0.30840000  1
  C  C31  1  0.93690000  0.53993000  0.34306000  1
  C  C32  1  0.94140000  0.54970000  0.39048000  1
  C  C33  1  0.89990000  0.56663000  0.33106000  1
  C  C34  1  0.90890000  0.58622000  0.42588000  1
  C  C35  1  0.86740000  0.60314000  0.36646000  1
  C  C36  1  0.87190000  0.61295000  0.41388000  1
  C  C37  1  0.83770000  0.65450000  0.45180000  1
  C  C38  1  0.34380000  0.09065000  0.31710000  1
  C  C39  1  0.37800000  0.05020000  0.27820000  1
  C  C40  1  0.36790000  0.03827000  0.22954000  1
  C  C41  1  0.41820000  0.02743000  0.28846000  1
  C  C42  1  0.39890000  0.00215000  0.19410000  1
  C  C43  1  0.45080000  0.99117000  0.25254000  1
  C  C44  1  0.44160000  0.97869000  0.20498000  1
  C  C45  1  0.47540000  0.92490000  0.12060000  1
  C  C46  1  0.52620000  0.89015000  0.09470000  1
  C  C47  1  0.55160000  0.86377000  0.10974000  1
  C  C48  1  0.53630000  0.89200000  0.05380000  1
  C  C49  1  0.59400000  0.83145000  0.07950000  1
  C  C50  1  0.57770000  0.85849000  0.02558000  1
  C  C51  1  0.60650000  0.82828000  0.03816000  1
  C  C52  1  0.65020000  0.79470000  0.00500000  1
  C  C53  1  0.70520000  0.80808000  0.01856000  1
  C  C54  1  0.63250000  0.75432000  0.96164000  1
  C  C55  1  0.72226000  0.84986000  0.06172000  1
  C  C56  1  0.57600000  0.73895000  0.94910000  1
  C  C57  1  0.63330000  0.68666000  0.89132000  1
  C  C58  1  0.57670000  0.69939000  0.90578000  1
  C  C59  1  0.65030000  0.64496000  0.84932000  1
  C  C60  1  0.70520000  0.63143000  0.83546000  1
  C  C61  1  0.60540000  0.61140000  0.81520000  1
  C  C62  1  0.72224000  0.59011000  0.79262000  1
  C  C63  1  0.58580000  0.62660000  0.78700000  1
  C  C64  1  0.59510000  0.56900000  0.81200000  1
  C  C65  1  0.54550000  0.60110000  0.74800000  1
  C  C66  1  0.55400000  0.54150000  0.77320000  1
  C  C67  1  0.52620000  0.55890000  0.74840000  1
  C  C68  1  0.49430000  0.53990000  0.69160000  1
  C  C69  1  0.43690000  0.46007000  0.65694000  1
  C  C70  1  0.44140000  0.45030000  0.60952000  1
  C  C71  1  0.39990000  0.43337000  0.66894000  1
  C  C72  1  0.40890000  0.41378000  0.57412000  1
  C  C73  1  0.36740000  0.39686000  0.63354000  1
  C  C74  1  0.37190000  0.38705000  0.58612000  1
  C  C75  1  0.33770000  0.34550000  0.54820000  1
  C  C76  1  0.65620000  0.77355000  0.68290000  1
  C  C77  1  0.62200000  0.77200000  0.72180000  1
  C  C78  1  0.63210000  0.80873000  0.77046000  1
  C  C79  1  0.58180000  0.73897000  0.71154000  1
  C  C80  1  0.60110000  0.80805000  0.80590000  1
  C  C81  1  0.54920000  0.73863000  0.74746000  1
  C  C82  1  0.55840000  0.77371000  0.79502000  1
  C  C83  1  0.52460000  0.80430000  0.87940000  1
  C  C84  1  0.47380000  0.79545000  0.90530000  1
  C  C85  1  0.44840000  0.75403000  0.89026000  1
  C  C86  1  0.46370000  0.83820000  0.94620000  1
  C  C87  1  0.40600000  0.75195000  0.92050000  1
  C  C88  1  0.42230000  0.83291000  0.97442000  1
  C  C89  1  0.39350000  0.79012000  0.96184000  1
  C  C90  1  0.34980000  0.78970000  0.99500000  1
  C  C91  1  0.29480000  0.78952000  0.98144000  1
  C  C92  1  0.36750000  0.79268000  0.03836000  1
  C  C93  1  0.27774000  0.78814000  0.93828000  1
  C  C94  1  0.42400000  0.78985000  0.05090000  1
  C  C95  1  0.36670000  0.79534000  0.10868000  1
  C  C96  1  0.42330000  0.79361000  0.09422000  1
  C  C97  1  0.34970000  0.79564000  0.15068000  1
  C  C98  1  0.29480000  0.79597000  0.16454000  1
  C  C99  1  0.39460000  0.79620000  0.18480000  1
  C  C100  1  0.27776000  0.79749000  0.20738000  1
  C  C101  1  0.41420000  0.83960000  0.21300000  1
  C  C102  1  0.40490000  0.75700000  0.18800000  1
  C  C103  1  0.45450000  0.85310000  0.25200000  1
  C  C104  1  0.44600000  0.76830000  0.22680000  1
  C  C105  1  0.47380000  0.81050000  0.25160000  1
  C  C106  1  0.50570000  0.84830000  0.30840000  1
  C  C107  1  0.56310000  0.80313000  0.34306000  1
  C  C108  1  0.55860000  0.84078000  0.39048000  1
  C  C109  1  0.60010000  0.76443000  0.33106000  1
  C  C110  1  0.59110000  0.83966000  0.42588000  1
  C  C111  1  0.63260000  0.76332000  0.36646000  1
  C  C112  1  0.62810000  0.80093000  0.41388000  1
  C  C113  1  0.66230000  0.79730000  0.45180000  1
  C  C114  1  0.15620000  0.22645000  0.31710000  1
  C  C115  1  0.12200000  0.22800000  0.27820000  1
  C  C116  1  0.13210000  0.19127000  0.22954000  1
  C  C117  1  0.08180000  0.26103000  0.28846000  1
  C  C118  1  0.10110000  0.19195000  0.19410000  1
  C  C119  1  0.04920000  0.26137000  0.25254000  1
  C  C120  1  0.05840000  0.22629000  0.20498000  1
  C  C121  1  0.02460000  0.19570000  0.12060000  1
  C  C122  1  0.97380000  0.20455000  0.09470000  1
  C  C123  1  0.94840000  0.24597000  0.10974000  1
  C  C124  1  0.96370000  0.16180000  0.05380000  1
  C  C125  1  0.90600000  0.24805000  0.07950000  1
  C  C126  1  0.92230000  0.16709000  0.02558000  1
  C  C127  1  0.89350000  0.20988000  0.03816000  1
  C  C128  1  0.84980000  0.21030000  0.00500000  1
  C  C129  1  0.79480000  0.21048000  0.01856000  1
  C  C130  1  0.86750000  0.20732000  0.96164000  1
  C  C131  1  0.77774000  0.21186000  0.06172000  1
  C  C132  1  0.92400000  0.21015000  0.94910000  1
  C  C133  1  0.86670000  0.20466000  0.89132000  1
  C  C134  1  0.92330000  0.20639000  0.90578000  1
  C  C135  1  0.84970000  0.20436000  0.84932000  1
  C  C136  1  0.79480000  0.20403000  0.83546000  1
  C  C137  1  0.89460000  0.20380000  0.81520000  1
  C  C138  1  0.77776000  0.20251000  0.79262000  1
  C  C139  1  0.91420000  0.16040000  0.78700000  1
  C  C140  1  0.90490000  0.24300000  0.81200000  1
  C  C141  1  0.95450000  0.14690000  0.74800000  1
  C  C142  1  0.94600000  0.23170000  0.77320000  1
  C  C143  1  0.97380000  0.18950000  0.74840000  1
  C  C144  1  0.00570000  0.15170000  0.69160000  1
  C  C145  1  0.06310000  0.19687000  0.65694000  1
  C  C146  1  0.05860000  0.15922000  0.60952000  1
  C  C147  1  0.10010000  0.23557000  0.66894000  1
  C  C148  1  0.09110000  0.16034000  0.57412000  1
  C  C149  1  0.13260000  0.23668000  0.63354000  1
  C  C150  1  0.12810000  0.19907000  0.58612000  1
  C  C151  1  0.16230000  0.20270000  0.54820000  1
  C  C152  1  0.15620000  0.09065000  0.31710000  1
  C  C153  1  0.12200000  0.05020000  0.27820000  1
  C  C154  1  0.13210000  0.03827000  0.22954000  1
  C  C155  1  0.08180000  0.02743000  0.28846000  1
  C  C156  1  0.10110000  0.00215000  0.19410000  1
  C  C157  1  0.04920000  0.99117000  0.25254000  1
  C  C158  1  0.05840000  0.97869000  0.20498000  1
  C  C159  1  0.02460000  0.92490000  0.12060000  1
  C  C160  1  0.97380000  0.89015000  0.09470000  1
  C  C161  1  0.94840000  0.86377000  0.10974000  1
  C  C162  1  0.96370000  0.89200000  0.05380000  1
  C  C163  1  0.90600000  0.83145000  0.07950000  1
  C  C164  1  0.92230000  0.85849000  0.02558000  1
  C  C165  1  0.89350000  0.82828000  0.03816000  1
  C  C166  1  0.84980000  0.79470000  0.00500000  1
  C  C167  1  0.79480000  0.80808000  0.01856000  1
  C  C168  1  0.86750000  0.75432000  0.96164000  1
  C  C169  1  0.77774000  0.84986000  0.06172000  1
  C  C170  1  0.92400000  0.73895000  0.94910000  1
  C  C171  1  0.86670000  0.68666000  0.89132000  1
  C  C172  1  0.92330000  0.69939000  0.90578000  1
  C  C173  1  0.84970000  0.64496000  0.84932000  1
  C  C174  1  0.79480000  0.63143000  0.83546000  1
  C  C175  1  0.89460000  0.61140000  0.81520000  1
  C  C176  1  0.77776000  0.59011000  0.79262000  1
  C  C177  1  0.91420000  0.62660000  0.78700000  1
  C  C178  1  0.90490000  0.56900000  0.81200000  1
  C  C179  1  0.95450000  0.60110000  0.74800000  1
  C  C180  1  0.94600000  0.54150000  0.77320000  1
  C  C181  1  0.97380000  0.55890000  0.74840000  1
  C  C182  1  0.00570000  0.53990000  0.69160000  1
  C  C183  1  0.06310000  0.46007000  0.65694000  1
  C  C184  1  0.05860000  0.45030000  0.60952000  1
  C  C185  1  0.10010000  0.43337000  0.66894000  1
  C  C186  1  0.09110000  0.41378000  0.57412000  1
  C  C187  1  0.13260000  0.39686000  0.63354000  1
  C  C188  1  0.12810000  0.38705000  0.58612000  1
  C  C189  1  0.16230000  0.34550000  0.54820000  1
  C  C190  1  0.65620000  0.90935000  0.68290000  1
  C  C191  1  0.62200000  0.94980000  0.72180000  1
  C  C192  1  0.63210000  0.96173000  0.77046000  1
  C  C193  1  0.58180000  0.97257000  0.71154000  1
  C  C194  1  0.60110000  0.99785000  0.80590000  1
  C  C195  1  0.54920000  0.00883000  0.74746000  1
  C  C196  1  0.55840000  0.02131000  0.79502000  1
  C  C197  1  0.52460000  0.07510000  0.87940000  1
  C  C198  1  0.47380000  0.10985000  0.90530000  1
  C  C199  1  0.44840000  0.13623000  0.89026000  1
  C  C200  1  0.46370000  0.10800000  0.94620000  1
  C  C201  1  0.40600000  0.16855000  0.92050000  1
  C  C202  1  0.42230000  0.14151000  0.97442000  1
  C  C203  1  0.39350000  0.17172000  0.96184000  1
  C  C204  1  0.34980000  0.20530000  0.99500000  1
  C  C205  1  0.29480000  0.19192000  0.98144000  1
  C  C206  1  0.36750000  0.24568000  0.03836000  1
  C  C207  1  0.27774000  0.15014000  0.93828000  1
  C  C208  1  0.42400000  0.26105000  0.05090000  1
  C  C209  1  0.36670000  0.31334000  0.10868000  1
  C  C210  1  0.42330000  0.30061000  0.09422000  1
  C  C211  1  0.34970000  0.35504000  0.15068000  1
  C  C212  1  0.29480000  0.36857000  0.16454000  1
  C  C213  1  0.39460000  0.38860000  0.18480000  1
  C  C214  1  0.27776000  0.40989000  0.20738000  1
  C  C215  1  0.41420000  0.37340000  0.21300000  1
  C  C216  1  0.40490000  0.43100000  0.18800000  1
  C  C217  1  0.45450000  0.39890000  0.25200000  1
  C  C218  1  0.44600000  0.45850000  0.22680000  1
  C  C219  1  0.47380000  0.44110000  0.25160000  1
  C  C220  1  0.50570000  0.46010000  0.30840000  1
  C  C221  1  0.56310000  0.53993000  0.34306000  1
  C  C222  1  0.55860000  0.54970000  0.39048000  1
  C  C223  1  0.60010000  0.56663000  0.33106000  1
  C  C224  1  0.59110000  0.58622000  0.42588000  1
  C  C225  1  0.63260000  0.60314000  0.36646000  1
  C  C226  1  0.62810000  0.61295000  0.41388000  1
  C  C227  1  0.66230000  0.65450000  0.45180000  1
  C  C228  1  0.34380000  0.22645000  0.31710000  1
  C  C229  1  0.37800000  0.22800000  0.27820000  1
  C  C230  1  0.36790000  0.19127000  0.22954000  1
  C  C231  1  0.41820000  0.26103000  0.28846000  1
  C  C232  1  0.39890000  0.19195000  0.19410000  1
  C  C233  1  0.45080000  0.26137000  0.25254000  1
  C  C234  1  0.44160000  0.22629000  0.20498000  1
  C  C235  1  0.47540000  0.19570000  0.12060000  1
  C  C236  1  0.52620000  0.20455000  0.09470000  1
  C  C237  1  0.55160000  0.24597000  0.10974000  1
  C  C238  1  0.53630000  0.16180000  0.05380000  1
  C  C239  1  0.59400000  0.24805000  0.07950000  1
  C  C240  1  0.57770000  0.16709000  0.02558000  1
  C  C241  1  0.60650000  0.20988000  0.03816000  1
  C  C242  1  0.65020000  0.21030000  0.00500000  1
  C  C243  1  0.70520000  0.21048000  0.01856000  1
  C  C244  1  0.63250000  0.20732000  0.96164000  1
  C  C245  1  0.72226000  0.21186000  0.06172000  1
  C  C246  1  0.57600000  0.21015000  0.94910000  1
  C  C247  1  0.63330000  0.20466000  0.89132000  1
  C  C248  1  0.57670000  0.20639000  0.90578000  1
  C  C249  1  0.65030000  0.20436000  0.84932000  1
  C  C250  1  0.70520000  0.20403000  0.83546000  1
  C  C251  1  0.60540000  0.20380000  0.81520000  1
  C  C252  1  0.72224000  0.20251000  0.79262000  1
  C  C253  1  0.58580000  0.16040000  0.78700000  1
  C  C254  1  0.59510000  0.24300000  0.81200000  1
  C  C255  1  0.54550000  0.14690000  0.74800000  1
  C  C256  1  0.55400000  0.23170000  0.77320000  1
  C  C257  1  0.52620000  0.18950000  0.74840000  1
  C  C258  1  0.49430000  0.15170000  0.69160000  1
  C  C259  1  0.43690000  0.19687000  0.65694000  1
  C  C260  1  0.44140000  0.15922000  0.60952000  1
  C  C261  1  0.39990000  0.23557000  0.66894000  1
  C  C262  1  0.40890000  0.16034000  0.57412000  1
  C  C263  1  0.36740000  0.23668000  0.63354000  1
  C  C264  1  0.37190000  0.19907000  0.58612000  1
  C  C265  1  0.33770000  0.20270000  0.54820000  1
  C  C266  1  0.84380000  0.77355000  0.68290000  1
  C  C267  1  0.87800000  0.77200000  0.72180000  1
  C  C268  1  0.86790000  0.80873000  0.77046000  1
  C  C269  1  0.91820000  0.73897000  0.71154000  1
  C  C270  1  0.89890000  0.80805000  0.80590000  1
  C  C271  1  0.95080000  0.73863000  0.74746000  1
  C  C272  1  0.94160000  0.77371000  0.79502000  1
  C  C273  1  0.97540000  0.80430000  0.87940000  1
  C  C274  1  0.02620000  0.79545000  0.90530000  1
  C  C275  1  0.05160000  0.75403000  0.89026000  1
  C  C276  1  0.03630000  0.83820000  0.94620000  1
  C  C277  1  0.09400000  0.75195000  0.92050000  1
  C  C278  1  0.07770000  0.83291000  0.97442000  1
  C  C279  1  0.10650000  0.79012000  0.96184000  1
  C  C280  1  0.15020000  0.78970000  0.99500000  1
  C  C281  1  0.20520000  0.78952000  0.98144000  1
  C  C282  1  0.13250000  0.79268000  0.03836000  1
  C  C283  1  0.22226000  0.78814000  0.93828000  1
  C  C284  1  0.07600000  0.78985000  0.05090000  1
  C  C285  1  0.13330000  0.79534000  0.10868000  1
  C  C286  1  0.07670000  0.79361000  0.09422000  1
  C  C287  1  0.15030000  0.79564000  0.15068000  1
  C  C288  1  0.20520000  0.79597000  0.16454000  1
  C  C289  1  0.10540000  0.79620000  0.18480000  1
  C  C290  1  0.22224000  0.79749000  0.20738000  1
  C  C291  1  0.08580000  0.83960000  0.21300000  1
  C  C292  1  0.09510000  0.75700000  0.18800000  1
  C  C293  1  0.04550000  0.85310000  0.25200000  1
  C  C294  1  0.05400000  0.76830000  0.22680000  1
  C  C295  1  0.02620000  0.81050000  0.25160000  1
  C  C296  1  0.99430000  0.84830000  0.30840000  1
  C  C297  1  0.93690000  0.80313000  0.34306000  1
  C  C298  1  0.94140000  0.84078000  0.39048000  1
  C  C299  1  0.89990000  0.76443000  0.33106000  1
  C  C300  1  0.90890000  0.83966000  0.42588000  1
  C  C301  1  0.86740000  0.76332000  0.36646000  1
  C  C302  1  0.87190000  0.80093000  0.41388000  1
  C  C303  1  0.83770000  0.79730000  0.45180000  1
  H  H304  1  0.84070000  0.94530000  0.77780000  1
  H  H305  1  0.92480000  0.96400000  0.67960000  1
  H  H306  1  0.89150000  0.00710000  0.83780000  1
  H  H307  1  0.97840000  0.02460000  0.73960000  1
  H  H308  1  0.00250000  0.06870000  0.81940000  1
  H  H309  1  0.04290000  0.13450000  0.86100000  1
  H  H310  1  0.01790000  0.08700000  0.95500000  1
  H  H311  1  0.11340000  0.18780000  0.91020000  1
  H  H312  1  0.08610000  0.14320000  0.00380000  1
  H  H313  1  0.19960000  0.12700000  0.91440000  1
  H  H314  1  0.04530000  0.24610000  0.03220000  1
  H  H315  1  0.04610000  0.31740000  0.11220000  1
  H  H316  1  0.19970000  0.43300000  0.23140000  1
  H  H317  1  0.09840000  0.34270000  0.20820000  1
  H  H318  1  0.11100000  0.44300000  0.16900000  1
  H  H319  1  0.03470000  0.38820000  0.27360000  1
  H  H320  1  0.04710000  0.49140000  0.23440000  1
  H  H321  1  0.96610000  0.53190000  0.39860000  1
  H  H322  1  0.89690000  0.56010000  0.29940000  1
  H  H323  1  0.91190000  0.59280000  0.45760000  1
  H  H324  1  0.84260000  0.62100000  0.35840000  1
  H  H325  1  0.34070000  0.05470000  0.22220000  1
  H  H326  1  0.42480000  0.03600000  0.32040000  1
  H  H327  1  0.39150000  0.99290000  0.16220000  1
  H  H328  1  0.47840000  0.97540000  0.26040000  1
  H  H329  1  0.50250000  0.93130000  0.18060000  1
  H  H330  1  0.54290000  0.86550000  0.13900000  1
  H  H331  1  0.51790000  0.91300000  0.04500000  1
  H  H332  1  0.61340000  0.81220000  0.08980000  1
  H  H333  1  0.58610000  0.85680000  0.99620000  1
  H  H334  1  0.69960000  0.87300000  0.08560000  1
  H  H335  1  0.54530000  0.75390000  0.96780000  1
  H  H336  1  0.54610000  0.68260000  0.88780000  1
  H  H337  1  0.69970000  0.56700000  0.76860000  1
  H  H338  1  0.59840000  0.65730000  0.79180000  1
  H  H339  1  0.61100000  0.55700000  0.83100000  1
  H  H340  1  0.53470000  0.61180000  0.72640000  1
  H  H341  1  0.54710000  0.50860000  0.76560000  1
  H  H342  1  0.46610000  0.46810000  0.60140000  1
  H  H343  1  0.39690000  0.43990000  0.70060000  1
  H  H344  1  0.41190000  0.40720000  0.54240000  1
  H  H345  1  0.34260000  0.37900000  0.64160000  1
  H  H346  1  0.65930000  0.83250000  0.77780000  1
  H  H347  1  0.57520000  0.71560000  0.67960000  1
  H  H348  1  0.60850000  0.83070000  0.83780000  1
  H  H349  1  0.52160000  0.71500000  0.73960000  1
  H  H350  1  0.49750000  0.75070000  0.81940000  1
  H  H351  1  0.45710000  0.72650000  0.86100000  1
  H  H352  1  0.48210000  0.86800000  0.95500000  1
  H  H353  1  0.38660000  0.72240000  0.91020000  1
  H  H354  1  0.41390000  0.86060000  0.00380000  1
  H  H355  1  0.30040000  0.78740000  0.91440000  1
  H  H356  1  0.45470000  0.78610000  0.03220000  1
  H  H357  1  0.45390000  0.79480000  0.11220000  1
  H  H358  1  0.30030000  0.79840000  0.23140000  1
  H  H359  1  0.40160000  0.86550000  0.20820000  1
  H  H360  1  0.38900000  0.72600000  0.16900000  1
  H  H361  1  0.46530000  0.88540000  0.27360000  1
  H  H362  1  0.45290000  0.74300000  0.23440000  1
  H  H363  1  0.53390000  0.86670000  0.39860000  1
  H  H364  1  0.60310000  0.73930000  0.29940000  1
  H  H365  1  0.58810000  0.86480000  0.45760000  1
  H  H366  1  0.65740000  0.73740000  0.35840000  1
  H  H367  1  0.15930000  0.16750000  0.22220000  1
  H  H368  1  0.07520000  0.28440000  0.32040000  1
  H  H369  1  0.10850000  0.16930000  0.16220000  1
  H  H370  1  0.02160000  0.28500000  0.26040000  1
  H  H371  1  0.99750000  0.24930000  0.18060000  1
  H  H372  1  0.95710000  0.27350000  0.13900000  1
  H  H373  1  0.98210000  0.13200000  0.04500000  1
  H  H374  1  0.88660000  0.27760000  0.08980000  1
  H  H375  1  0.91390000  0.13940000  0.99620000  1
  H  H376  1  0.80040000  0.21260000  0.08560000  1
  H  H377  1  0.95470000  0.21390000  0.96780000  1
  H  H378  1  0.95390000  0.20520000  0.88780000  1
  H  H379  1  0.80030000  0.20160000  0.76860000  1
  H  H380  1  0.90160000  0.13450000  0.79180000  1
  H  H381  1  0.88900000  0.27400000  0.83100000  1
  H  H382  1  0.96530000  0.11460000  0.72640000  1
  H  H383  1  0.95290000  0.25700000  0.76560000  1
  H  H384  1  0.03390000  0.13330000  0.60140000  1
  H  H385  1  0.10310000  0.26070000  0.70060000  1
  H  H386  1  0.08810000  0.13520000  0.54240000  1
  H  H387  1  0.15740000  0.26260000  0.64160000  1
  H  H388  1  0.15930000  0.05470000  0.22220000  1
  H  H389  1  0.07520000  0.03600000  0.32040000  1
  H  H390  1  0.10850000  0.99290000  0.16220000  1
  H  H391  1  0.02160000  0.97540000  0.26040000  1
  H  H392  1  0.99750000  0.93130000  0.18060000  1
  H  H393  1  0.95710000  0.86550000  0.13900000  1
  H  H394  1  0.98210000  0.91300000  0.04500000  1
  H  H395  1  0.88660000  0.81220000  0.08980000  1
  H  H396  1  0.91390000  0.85680000  0.99620000  1
  H  H397  1  0.80040000  0.87300000  0.08560000  1
  H  H398  1  0.95470000  0.75390000  0.96780000  1
  H  H399  1  0.95390000  0.68260000  0.88780000  1
  H  H400  1  0.80030000  0.56700000  0.76860000  1
  H  H401  1  0.90160000  0.65730000  0.79180000  1
  H  H402  1  0.88900000  0.55700000  0.83100000  1
  H  H403  1  0.96530000  0.61180000  0.72640000  1
  H  H404  1  0.95290000  0.50860000  0.76560000  1
  H  H405  1  0.03390000  0.46810000  0.60140000  1
  H  H406  1  0.10310000  0.43990000  0.70060000  1
  H  H407  1  0.08810000  0.40720000  0.54240000  1
  H  H408  1  0.15740000  0.37900000  0.64160000  1
  H  H409  1  0.65930000  0.94530000  0.77780000  1
  H  H410  1  0.57520000  0.96400000  0.67960000  1
  H  H411  1  0.60850000  0.00710000  0.83780000  1
  H  H412  1  0.52160000  0.02460000  0.73960000  1
  H  H413  1  0.49750000  0.06870000  0.81940000  1
  H  H414  1  0.45710000  0.13450000  0.86100000  1
  H  H415  1  0.48210000  0.08700000  0.95500000  1
  H  H416  1  0.38660000  0.18780000  0.91020000  1
  H  H417  1  0.41390000  0.14320000  0.00380000  1
  H  H418  1  0.30040000  0.12700000  0.91440000  1
  H  H419  1  0.45470000  0.24610000  0.03220000  1
  H  H420  1  0.45390000  0.31740000  0.11220000  1
  H  H421  1  0.30030000  0.43300000  0.23140000  1
  H  H422  1  0.40160000  0.34270000  0.20820000  1
  H  H423  1  0.38900000  0.44300000  0.16900000  1
  H  H424  1  0.46530000  0.38820000  0.27360000  1
  H  H425  1  0.45290000  0.49140000  0.23440000  1
  H  H426  1  0.53390000  0.53190000  0.39860000  1
  H  H427  1  0.60310000  0.56010000  0.29940000  1
  H  H428  1  0.58810000  0.59280000  0.45760000  1
  H  H429  1  0.65740000  0.62100000  0.35840000  1
  H  H430  1  0.34070000  0.16750000  0.22220000  1
  H  H431  1  0.42480000  0.28440000  0.32040000  1
  H  H432  1  0.39150000  0.16930000  0.16220000  1
  H  H433  1  0.47840000  0.28500000  0.26040000  1
  H  H434  1  0.50250000  0.24930000  0.18060000  1
  H  H435  1  0.54290000  0.27350000  0.13900000  1
  H  H436  1  0.51790000  0.13200000  0.04500000  1
  H  H437  1  0.61340000  0.27760000  0.08980000  1
  H  H438  1  0.58610000  0.13940000  0.99620000  1
  H  H439  1  0.69960000  0.21260000  0.08560000  1
  H  H440  1  0.54530000  0.21390000  0.96780000  1
  H  H441  1  0.54610000  0.20520000  0.88780000  1
  H  H442  1  0.69970000  0.20160000  0.76860000  1
  H  H443  1  0.59840000  0.13450000  0.79180000  1
  H  H444  1  0.61100000  0.27400000  0.83100000  1
  H  H445  1  0.53470000  0.11460000  0.72640000  1
  H  H446  1  0.54710000  0.25700000  0.76560000  1
  H  H447  1  0.46610000  0.13330000  0.60140000  1
  H  H448  1  0.39690000  0.26070000  0.70060000  1
  H  H449  1  0.41190000  0.13520000  0.54240000  1
  H  H450  1  0.34260000  0.26260000  0.64160000  1
  H  H451  1  0.84070000  0.83250000  0.77780000  1
  H  H452  1  0.92480000  0.71560000  0.67960000  1
  H  H453  1  0.89150000  0.83070000  0.83780000  1
  H  H454  1  0.97840000  0.71500000  0.73960000  1
  H  H455  1  0.00250000  0.75070000  0.81940000  1
  H  H456  1  0.04290000  0.72650000  0.86100000  1
  H  H457  1  0.01790000  0.86800000  0.95500000  1
  H  H458  1  0.11340000  0.72240000  0.91020000  1
  H  H459  1  0.08610000  0.86060000  0.00380000  1
  H  H460  1  0.19960000  0.78740000  0.91440000  1
  H  H461  1  0.04530000  0.78610000  0.03220000  1
  H  H462  1  0.04610000  0.79480000  0.11220000  1
  H  H463  1  0.19970000  0.79840000  0.23140000  1
  H  H464  1  0.09840000  0.86550000  0.20820000  1
  H  H465  1  0.11100000  0.72600000  0.16900000  1
  H  H466  1  0.03470000  0.88540000  0.27360000  1
  H  H467  1  0.04710000  0.74300000  0.23440000  1
  H  H468  1  0.96610000  0.86670000  0.39860000  1
  H  H469  1  0.89690000  0.73930000  0.29940000  1
  H  H470  1  0.91190000  0.86480000  0.45760000  1
  H  H471  1  0.84260000  0.73740000  0.35840000  1
  H  H472  1  0.25000000  0.24430000  0.03380000  1
  H  H473  1  0.25000000  0.31670000  0.11220000  1
  H  H474  1  0.75000000  0.75570000  0.96620000  1
  H  H475  1  0.75000000  0.68330000  0.88780000  1
  H  H476  1  0.25000000  0.78950000  0.03380000  1
  H  H477  1  0.25000000  0.79550000  0.11220000  1
  H  H478  1  0.75000000  0.21050000  0.96620000  1
  H  H479  1  0.75000000  0.20450000  0.88780000  1
  N  N480  1  0.97710000  0.05698000  0.82996000  1
  N  N481  1  0.16639000  0.27976000  0.07412000  1
  N  N482  1  0.97290000  0.50414000  0.30768000  1
  N  N483  1  0.47710000  0.94302000  0.17004000  1
  N  N484  1  0.66639000  0.72024000  0.92588000  1
  N  N485  1  0.47290000  0.49586000  0.69232000  1
  N  N486  1  0.52290000  0.77298000  0.82996000  1
  N  N487  1  0.33361000  0.79436000  0.07412000  1
  N  N488  1  0.52710000  0.80354000  0.30768000  1
  N  N489  1  0.02290000  0.22702000  0.17004000  1
  N  N490  1  0.83361000  0.20564000  0.92588000  1
  N  N491  1  0.02710000  0.19646000  0.69232000  1
  N  N492  1  0.02290000  0.94302000  0.17004000  1
  N  N493  1  0.83361000  0.72024000  0.92588000  1
  N  N494  1  0.02710000  0.49586000  0.69232000  1
  N  N495  1  0.52290000  0.05698000  0.82996000  1
  N  N496  1  0.33361000  0.27976000  0.07412000  1
  N  N497  1  0.52710000  0.50414000  0.30768000  1
  N  N498  1  0.47710000  0.22702000  0.17004000  1
  N  N499  1  0.66639000  0.20564000  0.92588000  1
  N  N500  1  0.47290000  0.19646000  0.69232000  1
  N  N501  1  0.97710000  0.77298000  0.82996000  1
  N  N502  1  0.16639000  0.79436000  0.07412000  1
  N  N503  1  0.97290000  0.80354000  0.30768000  1
  N  N504  1  0.25000000  0.21713000  0.00666000  1
  N  N505  1  0.25000000  0.34371000  0.13942000  1
  N  N506  1  0.75000000  0.78287000  0.99334000  1
  N  N507  1  0.75000000  0.65629000  0.86058000  1
  N  N508  1  0.25000000  0.78953000  0.00666000  1
  N  N509  1  0.25000000  0.79571000  0.13942000  1
  N  N510  1  0.75000000  0.21047000  0.99334000  1
  N  N511  1  0.75000000  0.20429000  0.86058000  1
  O  O512  1  0.80406000  0.76354000  0.43868000  1
  O  O513  1  0.65226000  0.66340000  0.49530000  1
  O  O514  1  0.64512000  0.74175000  0.64020000  1
  O  O515  1  0.80499000  0.80502000  0.69698000  1
  O  O516  1  0.94210000  0.05738000  0.89876000  1
  O  O517  1  0.00890000  0.45280000  0.34520000  1
  O  O518  1  0.30406000  0.23646000  0.56132000  1
  O  O519  1  0.15226000  0.33660000  0.50470000  1
  O  O520  1  0.14512000  0.25825000  0.35980000  1
  O  O521  1  0.30499000  0.19498000  0.30302000  1
  O  O522  1  0.44210000  0.94262000  0.10124000  1
  O  O523  1  0.50890000  0.54720000  0.65480000  1
  O  O524  1  0.69594000  0.67514000  0.43868000  1
  O  O525  1  0.84774000  0.83190000  0.49530000  1
  O  O526  1  0.85488000  0.89845000  0.64020000  1
  O  O527  1  0.69501000  0.89196000  0.69698000  1
  O  O528  1  0.55790000  0.84138000  0.89876000  1
  O  O529  1  0.49110000  0.89240000  0.34520000  1
  O  O530  1  0.19594000  0.32486000  0.56132000  1
  O  O531  1  0.34774000  0.16810000  0.50470000  1
  O  O532  1  0.35488000  0.10155000  0.35980000  1
  O  O533  1  0.19501000  0.10804000  0.30302000  1
  O  O534  1  0.05790000  0.15862000  0.10124000  1
  O  O535  1  0.99110000  0.10760000  0.65480000  1
  O  O536  1  0.19594000  0.23646000  0.56132000  1
  O  O537  1  0.34774000  0.33660000  0.50470000  1
  O  O538  1  0.35488000  0.25825000  0.35980000  1
  O  O539  1  0.19501000  0.19498000  0.30302000  1
  O  O540  1  0.05790000  0.94262000  0.10124000  1
  O  O541  1  0.99110000  0.54720000  0.65480000  1
  O  O542  1  0.69594000  0.76354000  0.43868000  1
  O  O543  1  0.84774000  0.66340000  0.49530000  1
  O  O544  1  0.85488000  0.74175000  0.64020000  1
  O  O545  1  0.69501000  0.80502000  0.69698000  1
  O  O546  1  0.55790000  0.05738000  0.89876000  1
  O  O547  1  0.49110000  0.45280000  0.34520000  1
  O  O548  1  0.30406000  0.32486000  0.56132000  1
  O  O549  1  0.15226000  0.16810000  0.50470000  1
  O  O550  1  0.14512000  0.10155000  0.35980000  1
  O  O551  1  0.30499000  0.10804000  0.30302000  1
  O  O552  1  0.44210000  0.15862000  0.10124000  1
  O  O553  1  0.50890000  0.10760000  0.65480000  1
  O  O554  1  0.80406000  0.67514000  0.43868000  1
  O  O555  1  0.65226000  0.83190000  0.49530000  1
  O  O556  1  0.64512000  0.89845000  0.64020000  1
  O  O557  1  0.80499000  0.89196000  0.69698000  1
  O  O558  1  0.94210000  0.84138000  0.89876000  1
  O  O559  1  0.00890000  0.89240000  0.34520000  1
  O  O560  1  0.66790000  0.76034000  0.52068000  1
  O  O561  1  0.68625000  0.80312000  0.60624000  1
  O  O562  1  0.16790000  0.23966000  0.47932000  1
  O  O563  1  0.18625000  0.19688000  0.39376000  1
  O  O564  1  0.83210000  0.76034000  0.52068000  1
  O  O565  1  0.81375000  0.80312000  0.60624000  1
  O  O566  1  0.33210000  0.23966000  0.47932000  1
  O  O567  1  0.31375000  0.19688000  0.39376000  1
  O  O568  1  0.75000000  0.81517000  0.52872000  1
  O  O569  1  0.75000000  0.74205000  0.61434000  1
  O  O570  1  0.25000000  0.18483000  0.47128000  1
  O  O571  1  0.25000000  0.25795000  0.38566000  1
  O  O572  1  0.75000000  0.71355000  0.52872000  1
  O  O573  1  0.75000000  0.87229000  0.61434000  1
  O  O574  1  0.25000000  0.28645000  0.47128000  1
  O  O575  1  0.25000000  0.12771000  0.38566000  1
  Zr  Zr576  1  0.67766000  0.72610000  0.56774000  1
  Zr  Zr577  1  0.17766000  0.27390000  0.43226000  1
  Zr  Zr578  1  0.82234000  0.84164000  0.56774000  1
  Zr  Zr579  1  0.32234000  0.15836000  0.43226000  1
  Zr  Zr580  1  0.32234000  0.27390000  0.43226000  1
  Zr  Zr581  1  0.82234000  0.72610000  0.56774000  1
  Zr  Zr582  1  0.17766000  0.15836000  0.43226000  1
  Zr  Zr583  1  0.67766000  0.84164000  0.56774000  1
  Zr  Zr584  1  0.75000000  0.73955000  0.47910000  1
  Zr  Zr585  1  0.75000000  0.82810000  0.65620000  1
  Zr  Zr586  1  0.25000000  0.26045000  0.52090000  1
  Zr  Zr587  1  0.25000000  0.17190000  0.34380000  1
