# generated using pymatgen
data_Zr3FeH24C48N4ClO12
_symmetry_space_group_name_H-M   'P 1'
_cell_length_a   16.66000000
_cell_length_b   42.68000000
_cell_length_c   42.68000000
_cell_angle_alpha   120.00000000
_cell_angle_beta   90.00000000
_cell_angle_gamma   90.00000000
_symmetry_Int_Tables_number   1
_chemical_formula_structural   Zr3FeH24C48N4ClO12
_chemical_formula_sum   'Zr18 Fe6 H144 C288 N24 Cl6 O72'
_cell_volume   26281.76031389
_cell_formula_units_Z   6
loop_
 _symmetry_equiv_pos_site_id
 _symmetry_equiv_pos_as_xyz
  1  'x, y, z'
loop_
 _atom_site_type_symbol
 _atom_site_label
 _atom_site_symmetry_multiplicity
 _atom_site_fract_x
 _atom_site_fract_y
 _atom_site_fract_z
 _atom_site_occupancy
  Zr  Zr0  1  0.39436000  1.00000000  0.45878000  1
  Zr  Zr1  1  0.39436000  0.45878000  1.00000000  1
  Zr  Zr2  1  0.39436000  0.54122000  0.54122000  1
  Zr  Zr3  1  0.39436000  1.00000000  0.54122000  1
  Zr  Zr4  1  0.39436000  0.54122000  0.00000000  1
  Zr  Zr5  1  0.39436000  0.45878000  0.45878000  1
  Zr  Zr6  1  0.60564000  0.54122000  0.54122000  1
  Zr  Zr7  1  0.60564000  0.45878000  1.00000000  1
  Zr  Zr8  1  0.60564000  1.00000000  0.45878000  1
  Zr  Zr9  1  0.60564000  0.45878000  0.45878000  1
  Zr  Zr10  1  0.60564000  0.54122000  0.00000000  1
  Zr  Zr11  1  0.60564000  1.00000000  0.54122000  1
  Zr  Zr12  1  0.50000000  0.93352000  0.46676000  1
  Zr  Zr13  1  0.50000000  0.53324000  0.06648000  1
  Zr  Zr14  1  0.50000000  0.53324000  0.46676000  1
  Zr  Zr15  1  0.50000000  0.06648000  0.53324000  1
  Zr  Zr16  1  0.50000000  0.46676000  0.93352000  1
  Zr  Zr17  1  0.50000000  0.46676000  0.53324000  1
  Fe  Fe18  1  0.00000000  0.75240000  0.50480000  1
  Fe  Fe19  1  0.00000000  0.75240000  0.24760000  1
  Fe  Fe20  1  0.00000000  0.49520000  0.24760000  1
  Fe  Fe21  1  1.00000000  0.24760000  0.49520000  1
  Fe  Fe22  1  1.00000000  0.24760000  0.75240000  1
  Fe  Fe23  1  1.00000000  0.50480000  0.75240000  1
  H  H24  1  0.07220000  0.86870000  0.50400000  1
  H  H25  1  0.29790000  0.78780000  0.51820000  1
  H  H26  1  0.34570000  0.84410000  0.45980000  1
  H  H27  1  0.26200000  0.80160000  0.45950000  1
  H  H28  1  0.27080000  0.91890000  0.55700000  1
  H  H29  1  0.17990000  0.87580000  0.55730000  1
  H  H30  1  0.07220000  0.63530000  0.13130000  1
  H  H31  1  0.29790000  0.73040000  0.21220000  1
  H  H32  1  0.34570000  0.61570000  0.15590000  1
  H  H33  1  0.26200000  0.65790000  0.19840000  1
  H  H34  1  0.27080000  0.63810000  0.08110000  1
  H  H35  1  0.17990000  0.68150000  0.12420000  1
  H  H36  1  0.07220000  0.49600000  0.36470000  1
  H  H37  1  0.29790000  0.48180000  0.26960000  1
  H  H38  1  0.34570000  0.54020000  0.38430000  1
  H  H39  1  0.26200000  0.54050000  0.34210000  1
  H  H40  1  0.27080000  0.44300000  0.36190000  1
  H  H41  1  0.17990000  0.44270000  0.31850000  1
  H  H42  1  0.07220000  0.13130000  0.49600000  1
  H  H43  1  0.29790000  0.21220000  0.48180000  1
  H  H44  1  0.34570000  0.15590000  0.54020000  1
  H  H45  1  0.26200000  0.19840000  0.54050000  1
  H  H46  1  0.27080000  0.08110000  0.44300000  1
  H  H47  1  0.17990000  0.12420000  0.44270000  1
  H  H48  1  0.07220000  0.36470000  0.86870000  1
  H  H49  1  0.29790000  0.26960000  0.78780000  1
  H  H50  1  0.34570000  0.38430000  0.84410000  1
  H  H51  1  0.26200000  0.34210000  0.80160000  1
  H  H52  1  0.27080000  0.36190000  0.91890000  1
  H  H53  1  0.17990000  0.31850000  0.87580000  1
  H  H54  1  0.07220000  0.50400000  0.63530000  1
  H  H55  1  0.29790000  0.51820000  0.73040000  1
  H  H56  1  0.34570000  0.45980000  0.61570000  1
  H  H57  1  0.26200000  0.45950000  0.65790000  1
  H  H58  1  0.27080000  0.55700000  0.63810000  1
  H  H59  1  0.17990000  0.55730000  0.68150000  1
  H  H60  1  0.92780000  0.36470000  0.49600000  1
  H  H61  1  0.70210000  0.26960000  0.48180000  1
  H  H62  1  0.65430000  0.38430000  0.54020000  1
  H  H63  1  0.73800000  0.34210000  0.54050000  1
  H  H64  1  0.72920000  0.36190000  0.44300000  1
  H  H65  1  0.82010000  0.31850000  0.44270000  1
  H  H66  1  0.92780000  0.50400000  0.86870000  1
  H  H67  1  0.70210000  0.51820000  0.78780000  1
  H  H68  1  0.65430000  0.45980000  0.84410000  1
  H  H69  1  0.73800000  0.45950000  0.80160000  1
  H  H70  1  0.72920000  0.55700000  0.91890000  1
  H  H71  1  0.82010000  0.55730000  0.87580000  1
  H  H72  1  0.92780000  0.13130000  0.63530000  1
  H  H73  1  0.70210000  0.21220000  0.73040000  1
  H  H74  1  0.65430000  0.15590000  0.61570000  1
  H  H75  1  0.73800000  0.19840000  0.65790000  1
  H  H76  1  0.72920000  0.08110000  0.63810000  1
  H  H77  1  0.82010000  0.12420000  0.68150000  1
  H  H78  1  0.92780000  0.63530000  0.50400000  1
  H  H79  1  0.70210000  0.73040000  0.51820000  1
  H  H80  1  0.65430000  0.61570000  0.45980000  1
  H  H81  1  0.73800000  0.65790000  0.45950000  1
  H  H82  1  0.72920000  0.63810000  0.55700000  1
  H  H83  1  0.82010000  0.68150000  0.55730000  1
  H  H84  1  0.92780000  0.49600000  0.13130000  1
  H  H85  1  0.70210000  0.48180000  0.21220000  1
  H  H86  1  0.65430000  0.54020000  0.15590000  1
  H  H87  1  0.73800000  0.54050000  0.19840000  1
  H  H88  1  0.72920000  0.44300000  0.08110000  1
  H  H89  1  0.82010000  0.44270000  0.12420000  1
  H  H90  1  0.92780000  0.86870000  0.36470000  1
  H  H91  1  0.70210000  0.78780000  0.26960000  1
  H  H92  1  0.65430000  0.84410000  0.38430000  1
  H  H93  1  0.73800000  0.80160000  0.34210000  1
  H  H94  1  0.72920000  0.91890000  0.36190000  1
  H  H95  1  0.82010000  0.87580000  0.31850000  1
  H  H96  1  0.92780000  0.13130000  0.49600000  1
  H  H97  1  0.70210000  0.21220000  0.48180000  1
  H  H98  1  0.65430000  0.15590000  0.54020000  1
  H  H99  1  0.73800000  0.19840000  0.54050000  1
  H  H100  1  0.72920000  0.08110000  0.44300000  1
  H  H101  1  0.82010000  0.12420000  0.44270000  1
  H  H102  1  0.92780000  0.36470000  0.86870000  1
  H  H103  1  0.70210000  0.26960000  0.78780000  1
  H  H104  1  0.65430000  0.38430000  0.84410000  1
  H  H105  1  0.73800000  0.34210000  0.80160000  1
  H  H106  1  0.72920000  0.36190000  0.91890000  1
  H  H107  1  0.82010000  0.31850000  0.87580000  1
  H  H108  1  0.92780000  0.50400000  0.63530000  1
  H  H109  1  0.70210000  0.51820000  0.73040000  1
  H  H110  1  0.65430000  0.45980000  0.61570000  1
  H  H111  1  0.73800000  0.45950000  0.65790000  1
  H  H112  1  0.72920000  0.55700000  0.63810000  1
  H  H113  1  0.82010000  0.55730000  0.68150000  1
  H  H114  1  0.92780000  0.86870000  0.50400000  1
  H  H115  1  0.70210000  0.78780000  0.51820000  1
  H  H116  1  0.65430000  0.84410000  0.45980000  1
  H  H117  1  0.73800000  0.80160000  0.45950000  1
  H  H118  1  0.72920000  0.91890000  0.55700000  1
  H  H119  1  0.82010000  0.87580000  0.55730000  1
  H  H120  1  0.92780000  0.63530000  0.13130000  1
  H  H121  1  0.70210000  0.73040000  0.21220000  1
  H  H122  1  0.65430000  0.61570000  0.15590000  1
  H  H123  1  0.73800000  0.65790000  0.19840000  1
  H  H124  1  0.72920000  0.63810000  0.08110000  1
  H  H125  1  0.82010000  0.68150000  0.12420000  1
  H  H126  1  0.92780000  0.49600000  0.36470000  1
  H  H127  1  0.70210000  0.48180000  0.26960000  1
  H  H128  1  0.65430000  0.54020000  0.38430000  1
  H  H129  1  0.73800000  0.54050000  0.34210000  1
  H  H130  1  0.72920000  0.44300000  0.36190000  1
  H  H131  1  0.82010000  0.44270000  0.31850000  1
  H  H132  1  0.07220000  0.63530000  0.50400000  1
  H  H133  1  0.29790000  0.73040000  0.51820000  1
  H  H134  1  0.34570000  0.61570000  0.45980000  1
  H  H135  1  0.26200000  0.65790000  0.45950000  1
  H  H136  1  0.27080000  0.63810000  0.55700000  1
  H  H137  1  0.17990000  0.68150000  0.55730000  1
  H  H138  1  0.07220000  0.49600000  0.13130000  1
  H  H139  1  0.29790000  0.48180000  0.21220000  1
  H  H140  1  0.34570000  0.54020000  0.15590000  1
  H  H141  1  0.26200000  0.54050000  0.19840000  1
  H  H142  1  0.27080000  0.44300000  0.08110000  1
  H  H143  1  0.17990000  0.44270000  0.12420000  1
  H  H144  1  0.07220000  0.86870000  0.36470000  1
  H  H145  1  0.29790000  0.78780000  0.26960000  1
  H  H146  1  0.34570000  0.84410000  0.38430000  1
  H  H147  1  0.26200000  0.80160000  0.34210000  1
  H  H148  1  0.27080000  0.91890000  0.36190000  1
  H  H149  1  0.17990000  0.87580000  0.31850000  1
  H  H150  1  0.07220000  0.36470000  0.49600000  1
  H  H151  1  0.29790000  0.26960000  0.48180000  1
  H  H152  1  0.34570000  0.38430000  0.54020000  1
  H  H153  1  0.26200000  0.34210000  0.54050000  1
  H  H154  1  0.27080000  0.36190000  0.44300000  1
  H  H155  1  0.17990000  0.31850000  0.44270000  1
  H  H156  1  0.07220000  0.50400000  0.86870000  1
  H  H157  1  0.29790000  0.51820000  0.78780000  1
  H  H158  1  0.34570000  0.45980000  0.84410000  1
  H  H159  1  0.26200000  0.45950000  0.80160000  1
  H  H160  1  0.27080000  0.55700000  0.91890000  1
  H  H161  1  0.17990000  0.55730000  0.87580000  1
  H  H162  1  0.07220000  0.13130000  0.63530000  1
  H  H163  1  0.29790000  0.21220000  0.73040000  1
  H  H164  1  0.34570000  0.15590000  0.61570000  1
  H  H165  1  0.26200000  0.19840000  0.65790000  1
  H  H166  1  0.27080000  0.08110000  0.63810000  1
  H  H167  1  0.17990000  0.12420000  0.68150000  1
  C  C168  1  0.03910000  0.85120000  0.50430000  1
  C  C169  1  0.25340000  0.77360000  0.51560000  1
  C  C170  1  0.17130000  0.78101000  0.51070000  1
  C  C171  1  0.36710000  0.91375000  0.50700000  1
  C  C172  1  0.31190000  0.85056000  0.47940000  1
  C  C173  1  0.31480000  0.88530000  0.50810000  1
  C  C174  1  0.20910000  0.83510000  0.50660000  1
  C  C175  1  0.26110000  0.82523000  0.47870000  1
  C  C176  1  0.26760000  0.89560000  0.53730000  1
  C  C177  1  0.06530000  0.81880000  0.50470000  1
  C  C178  1  0.14450000  0.81010000  0.50620000  1
  C  C179  1  0.21250000  0.86970000  0.53740000  1
  C  C180  1  0.03910000  0.65310000  0.14880000  1
  C  C181  1  0.25340000  0.74200000  0.22640000  1
  C  C182  1  0.17130000  0.72969000  0.21899000  1
  C  C183  1  0.36710000  0.59325000  0.08625000  1
  C  C184  1  0.31190000  0.62884000  0.14944000  1
  C  C185  1  0.31480000  0.62280000  0.11470000  1
  C  C186  1  0.20910000  0.67150000  0.16490000  1
  C  C187  1  0.26110000  0.65347000  0.17477000  1
  C  C188  1  0.26760000  0.64170000  0.10440000  1
  C  C189  1  0.06530000  0.68590000  0.18120000  1
  C  C190  1  0.14450000  0.69610000  0.18990000  1
  C  C191  1  0.21250000  0.66770000  0.13030000  1
  C  C192  1  0.03910000  0.49570000  0.34690000  1
  C  C193  1  0.25340000  0.48440000  0.25800000  1
  C  C194  1  0.17130000  0.48930000  0.27031000  1
  C  C195  1  0.36710000  0.49300000  0.40675000  1
  C  C196  1  0.31190000  0.52060000  0.37116000  1
  C  C197  1  0.31480000  0.49190000  0.37720000  1
  C  C198  1  0.20910000  0.49340000  0.32850000  1
  C  C199  1  0.26110000  0.52130000  0.34653000  1
  C  C200  1  0.26760000  0.46270000  0.35830000  1
  C  C201  1  0.06530000  0.49530000  0.31410000  1
  C  C202  1  0.14450000  0.49380000  0.30390000  1
  C  C203  1  0.21250000  0.46260000  0.33230000  1
  C  C204  1  0.03910000  0.14880000  0.49570000  1
  C  C205  1  0.25340000  0.22640000  0.48440000  1
  C  C206  1  0.17130000  0.21899000  0.48930000  1
  C  C207  1  0.36710000  0.08625000  0.49300000  1
  C  C208  1  0.31190000  0.14944000  0.52060000  1
  C  C209  1  0.31480000  0.11470000  0.49190000  1
  C  C210  1  0.20910000  0.16490000  0.49340000  1
  C  C211  1  0.26110000  0.17477000  0.52130000  1
  C  C212  1  0.26760000  0.10440000  0.46270000  1
  C  C213  1  0.06530000  0.18120000  0.49530000  1
  C  C214  1  0.14450000  0.18990000  0.49380000  1
  C  C215  1  0.21250000  0.13030000  0.46260000  1
  C  C216  1  0.03910000  0.34690000  0.85120000  1
  C  C217  1  0.25340000  0.25800000  0.77360000  1
  C  C218  1  0.17130000  0.27031000  0.78101000  1
  C  C219  1  0.36710000  0.40675000  0.91375000  1
  C  C220  1  0.31190000  0.37116000  0.85056000  1
  C  C221  1  0.31480000  0.37720000  0.88530000  1
  C  C222  1  0.20910000  0.32850000  0.83510000  1
  C  C223  1  0.26110000  0.34653000  0.82523000  1
  C  C224  1  0.26760000  0.35830000  0.89560000  1
  C  C225  1  0.06530000  0.31410000  0.81880000  1
  C  C226  1  0.14450000  0.30390000  0.81010000  1
  C  C227  1  0.21250000  0.33230000  0.86970000  1
  C  C228  1  0.03910000  0.50430000  0.65310000  1
  C  C229  1  0.25340000  0.51560000  0.74200000  1
  C  C230  1  0.17130000  0.51070000  0.72969000  1
  C  C231  1  0.36710000  0.50700000  0.59325000  1
  C  C232  1  0.31190000  0.47940000  0.62884000  1
  C  C233  1  0.31480000  0.50810000  0.62280000  1
  C  C234  1  0.20910000  0.50660000  0.67150000  1
  C  C235  1  0.26110000  0.47870000  0.65347000  1
  C  C236  1  0.26760000  0.53730000  0.64170000  1
  C  C237  1  0.06530000  0.50470000  0.68590000  1
  C  C238  1  0.14450000  0.50620000  0.69610000  1
  C  C239  1  0.21250000  0.53740000  0.66770000  1
  C  C240  1  0.96090000  0.34690000  0.49570000  1
  C  C241  1  0.74660000  0.25800000  0.48440000  1
  C  C242  1  0.82870000  0.27031000  0.48930000  1
  C  C243  1  0.63290000  0.40675000  0.49300000  1
  C  C244  1  0.68810000  0.37116000  0.52060000  1
  C  C245  1  0.68520000  0.37720000  0.49190000  1
  C  C246  1  0.79090000  0.32850000  0.49340000  1
  C  C247  1  0.73890000  0.34653000  0.52130000  1
  C  C248  1  0.73240000  0.35830000  0.46270000  1
  C  C249  1  0.93470000  0.31410000  0.49530000  1
  C  C250  1  0.85550000  0.30390000  0.49380000  1
  C  C251  1  0.78750000  0.33230000  0.46260000  1
  C  C252  1  0.96090000  0.50430000  0.85120000  1
  C  C253  1  0.74660000  0.51560000  0.77360000  1
  C  C254  1  0.82870000  0.51070000  0.78101000  1
  C  C255  1  0.63290000  0.50700000  0.91375000  1
  C  C256  1  0.68810000  0.47940000  0.85056000  1
  C  C257  1  0.68520000  0.50810000  0.88530000  1
  C  C258  1  0.79090000  0.50660000  0.83510000  1
  C  C259  1  0.73890000  0.47870000  0.82523000  1
  C  C260  1  0.73240000  0.53730000  0.89560000  1
  C  C261  1  0.93470000  0.50470000  0.81880000  1
  C  C262  1  0.85550000  0.50620000  0.81010000  1
  C  C263  1  0.78750000  0.53740000  0.86970000  1
  C  C264  1  0.96090000  0.14880000  0.65310000  1
  C  C265  1  0.74660000  0.22640000  0.74200000  1
  C  C266  1  0.82870000  0.21899000  0.72969000  1
  C  C267  1  0.63290000  0.08625000  0.59325000  1
  C  C268  1  0.68810000  0.14944000  0.62884000  1
  C  C269  1  0.68520000  0.11470000  0.62280000  1
  C  C270  1  0.79090000  0.16490000  0.67150000  1
  C  C271  1  0.73890000  0.17477000  0.65347000  1
  C  C272  1  0.73240000  0.10440000  0.64170000  1
  C  C273  1  0.93470000  0.18120000  0.68590000  1
  C  C274  1  0.85550000  0.18990000  0.69610000  1
  C  C275  1  0.78750000  0.13030000  0.66770000  1
  C  C276  1  0.96090000  0.65310000  0.50430000  1
  C  C277  1  0.74660000  0.74200000  0.51560000  1
  C  C278  1  0.82870000  0.72969000  0.51070000  1
  C  C279  1  0.63290000  0.59325000  0.50700000  1
  C  C280  1  0.68810000  0.62884000  0.47940000  1
  C  C281  1  0.68520000  0.62280000  0.50810000  1
  C  C282  1  0.79090000  0.67150000  0.50660000  1
  C  C283  1  0.73890000  0.65347000  0.47870000  1
  C  C284  1  0.73240000  0.64170000  0.53730000  1
  C  C285  1  0.93470000  0.68590000  0.50470000  1
  C  C286  1  0.85550000  0.69610000  0.50620000  1
  C  C287  1  0.78750000  0.66770000  0.53740000  1
  C  C288  1  0.96090000  0.49570000  0.14880000  1
  C  C289  1  0.74660000  0.48440000  0.22640000  1
  C  C290  1  0.82870000  0.48930000  0.21899000  1
  C  C291  1  0.63290000  0.49300000  0.08625000  1
  C  C292  1  0.68810000  0.52060000  0.14944000  1
  C  C293  1  0.68520000  0.49190000  0.11470000  1
  C  C294  1  0.79090000  0.49340000  0.16490000  1
  C  C295  1  0.73890000  0.52130000  0.17477000  1
  C  C296  1  0.73240000  0.46270000  0.10440000  1
  C  C297  1  0.93470000  0.49530000  0.18120000  1
  C  C298  1  0.85550000  0.49380000  0.18990000  1
  C  C299  1  0.78750000  0.46260000  0.13030000  1
  C  C300  1  0.96090000  0.85120000  0.34690000  1
  C  C301  1  0.74660000  0.77360000  0.25800000  1
  C  C302  1  0.82870000  0.78101000  0.27031000  1
  C  C303  1  0.63290000  0.91375000  0.40675000  1
  C  C304  1  0.68810000  0.85056000  0.37116000  1
  C  C305  1  0.68520000  0.88530000  0.37720000  1
  C  C306  1  0.79090000  0.83510000  0.32850000  1
  C  C307  1  0.73890000  0.82523000  0.34653000  1
  C  C308  1  0.73240000  0.89560000  0.35830000  1
  C  C309  1  0.93470000  0.81880000  0.31410000  1
  C  C310  1  0.85550000  0.81010000  0.30390000  1
  C  C311  1  0.78750000  0.86970000  0.33230000  1
  C  C312  1  0.96090000  0.14880000  0.49570000  1
  C  C313  1  0.74660000  0.22640000  0.48440000  1
  C  C314  1  0.82870000  0.21899000  0.48930000  1
  C  C315  1  0.63290000  0.08625000  0.49300000  1
  C  C316  1  0.68810000  0.14944000  0.52060000  1
  C  C317  1  0.68520000  0.11470000  0.49190000  1
  C  C318  1  0.79090000  0.16490000  0.49340000  1
  C  C319  1  0.73890000  0.17477000  0.52130000  1
  C  C320  1  0.73240000  0.10440000  0.46270000  1
  C  C321  1  0.93470000  0.18120000  0.49530000  1
  C  C322  1  0.85550000  0.18990000  0.49380000  1
  C  C323  1  0.78750000  0.13030000  0.46260000  1
  C  C324  1  0.96090000  0.34690000  0.85120000  1
  C  C325  1  0.74660000  0.25800000  0.77360000  1
  C  C326  1  0.82870000  0.27031000  0.78101000  1
  C  C327  1  0.63290000  0.40675000  0.91375000  1
  C  C328  1  0.68810000  0.37116000  0.85056000  1
  C  C329  1  0.68520000  0.37720000  0.88530000  1
  C  C330  1  0.79090000  0.32850000  0.83510000  1
  C  C331  1  0.73890000  0.34653000  0.82523000  1
  C  C332  1  0.73240000  0.35830000  0.89560000  1
  C  C333  1  0.93470000  0.31410000  0.81880000  1
  C  C334  1  0.85550000  0.30390000  0.81010000  1
  C  C335  1  0.78750000  0.33230000  0.86970000  1
  C  C336  1  0.96090000  0.50430000  0.65310000  1
  C  C337  1  0.74660000  0.51560000  0.74200000  1
  C  C338  1  0.82870000  0.51070000  0.72969000  1
  C  C339  1  0.63290000  0.50700000  0.59325000  1
  C  C340  1  0.68810000  0.47940000  0.62884000  1
  C  C341  1  0.68520000  0.50810000  0.62280000  1
  C  C342  1  0.79090000  0.50660000  0.67150000  1
  C  C343  1  0.73890000  0.47870000  0.65347000  1
  C  C344  1  0.73240000  0.53730000  0.64170000  1
  C  C345  1  0.93470000  0.50470000  0.68590000  1
  C  C346  1  0.85550000  0.50620000  0.69610000  1
  C  C347  1  0.78750000  0.53740000  0.66770000  1
  C  C348  1  0.96090000  0.85120000  0.50430000  1
  C  C349  1  0.74660000  0.77360000  0.51560000  1
  C  C350  1  0.82870000  0.78101000  0.51070000  1
  C  C351  1  0.63290000  0.91375000  0.50700000  1
  C  C352  1  0.68810000  0.85056000  0.47940000  1
  C  C353  1  0.68520000  0.88530000  0.50810000  1
  C  C354  1  0.79090000  0.83510000  0.50660000  1
  C  C355  1  0.73890000  0.82523000  0.47870000  1
  C  C356  1  0.73240000  0.89560000  0.53730000  1
  C  C357  1  0.93470000  0.81880000  0.50470000  1
  C  C358  1  0.85550000  0.81010000  0.50620000  1
  C  C359  1  0.78750000  0.86970000  0.53740000  1
  C  C360  1  0.96090000  0.65310000  0.14880000  1
  C  C361  1  0.74660000  0.74200000  0.22640000  1
  C  C362  1  0.82870000  0.72969000  0.21899000  1
  C  C363  1  0.63290000  0.59325000  0.08625000  1
  C  C364  1  0.68810000  0.62884000  0.14944000  1
  C  C365  1  0.68520000  0.62280000  0.11470000  1
  C  C366  1  0.79090000  0.67150000  0.16490000  1
  C  C367  1  0.73890000  0.65347000  0.17477000  1
  C  C368  1  0.73240000  0.64170000  0.10440000  1
  C  C369  1  0.93470000  0.68590000  0.18120000  1
  C  C370  1  0.85550000  0.69610000  0.18990000  1
  C  C371  1  0.78750000  0.66770000  0.13030000  1
  C  C372  1  0.96090000  0.49570000  0.34690000  1
  C  C373  1  0.74660000  0.48440000  0.25800000  1
  C  C374  1  0.82870000  0.48930000  0.27031000  1
  C  C375  1  0.63290000  0.49300000  0.40675000  1
  C  C376  1  0.68810000  0.52060000  0.37116000  1
  C  C377  1  0.68520000  0.49190000  0.37720000  1
  C  C378  1  0.79090000  0.49340000  0.32850000  1
  C  C379  1  0.73890000  0.52130000  0.34653000  1
  C  C380  1  0.73240000  0.46270000  0.35830000  1
  C  C381  1  0.93470000  0.49530000  0.31410000  1
  C  C382  1  0.85550000  0.49380000  0.30390000  1
  C  C383  1  0.78750000  0.46260000  0.33230000  1
  C  C384  1  0.03910000  0.65310000  0.50430000  1
  C  C385  1  0.25340000  0.74200000  0.51560000  1
  C  C386  1  0.17130000  0.72969000  0.51070000  1
  C  C387  1  0.36710000  0.59325000  0.50700000  1
  C  C388  1  0.31190000  0.62884000  0.47940000  1
  C  C389  1  0.31480000  0.62280000  0.50810000  1
  C  C390  1  0.20910000  0.67150000  0.50660000  1
  C  C391  1  0.26110000  0.65347000  0.47870000  1
  C  C392  1  0.26760000  0.64170000  0.53730000  1
  C  C393  1  0.06530000  0.68590000  0.50470000  1
  C  C394  1  0.14450000  0.69610000  0.50620000  1
  C  C395  1  0.21250000  0.66770000  0.53740000  1
  C  C396  1  0.03910000  0.49570000  0.14880000  1
  C  C397  1  0.25340000  0.48440000  0.22640000  1
  C  C398  1  0.17130000  0.48930000  0.21899000  1
  C  C399  1  0.36710000  0.49300000  0.08625000  1
  C  C400  1  0.31190000  0.52060000  0.14944000  1
  C  C401  1  0.31480000  0.49190000  0.11470000  1
  C  C402  1  0.20910000  0.49340000  0.16490000  1
  C  C403  1  0.26110000  0.52130000  0.17477000  1
  C  C404  1  0.26760000  0.46270000  0.10440000  1
  C  C405  1  0.06530000  0.49530000  0.18120000  1
  C  C406  1  0.14450000  0.49380000  0.18990000  1
  C  C407  1  0.21250000  0.46260000  0.13030000  1
  C  C408  1  0.03910000  0.85120000  0.34690000  1
  C  C409  1  0.25340000  0.77360000  0.25800000  1
  C  C410  1  0.17130000  0.78101000  0.27031000  1
  C  C411  1  0.36710000  0.91375000  0.40675000  1
  C  C412  1  0.31190000  0.85056000  0.37116000  1
  C  C413  1  0.31480000  0.88530000  0.37720000  1
  C  C414  1  0.20910000  0.83510000  0.32850000  1
  C  C415  1  0.26110000  0.82523000  0.34653000  1
  C  C416  1  0.26760000  0.89560000  0.35830000  1
  C  C417  1  0.06530000  0.81880000  0.31410000  1
  C  C418  1  0.14450000  0.81010000  0.30390000  1
  C  C419  1  0.21250000  0.86970000  0.33230000  1
  C  C420  1  0.03910000  0.34690000  0.49570000  1
  C  C421  1  0.25340000  0.25800000  0.48440000  1
  C  C422  1  0.17130000  0.27031000  0.48930000  1
  C  C423  1  0.36710000  0.40675000  0.49300000  1
  C  C424  1  0.31190000  0.37116000  0.52060000  1
  C  C425  1  0.31480000  0.37720000  0.49190000  1
  C  C426  1  0.20910000  0.32850000  0.49340000  1
  C  C427  1  0.26110000  0.34653000  0.52130000  1
  C  C428  1  0.26760000  0.35830000  0.46270000  1
  C  C429  1  0.06530000  0.31410000  0.49530000  1
  C  C430  1  0.14450000  0.30390000  0.49380000  1
  C  C431  1  0.21250000  0.33230000  0.46260000  1
  C  C432  1  0.03910000  0.50430000  0.85120000  1
  C  C433  1  0.25340000  0.51560000  0.77360000  1
  C  C434  1  0.17130000  0.51070000  0.78101000  1
  C  C435  1  0.36710000  0.50700000  0.91375000  1
  C  C436  1  0.31190000  0.47940000  0.85056000  1
  C  C437  1  0.31480000  0.50810000  0.88530000  1
  C  C438  1  0.20910000  0.50660000  0.83510000  1
  C  C439  1  0.26110000  0.47870000  0.82523000  1
  C  C440  1  0.26760000  0.53730000  0.89560000  1
  C  C441  1  0.06530000  0.50470000  0.81880000  1
  C  C442  1  0.14450000  0.50620000  0.81010000  1
  C  C443  1  0.21250000  0.53740000  0.86970000  1
  C  C444  1  0.03910000  0.14880000  0.65310000  1
  C  C445  1  0.25340000  0.22640000  0.74200000  1
  C  C446  1  0.17130000  0.21899000  0.72969000  1
  C  C447  1  0.36710000  0.08625000  0.59325000  1
  C  C448  1  0.31190000  0.14944000  0.62884000  1
  C  C449  1  0.31480000  0.11470000  0.62280000  1
  C  C450  1  0.20910000  0.16490000  0.67150000  1
  C  C451  1  0.26110000  0.17477000  0.65347000  1
  C  C452  1  0.26760000  0.10440000  0.64170000  1
  C  C453  1  0.06530000  0.18120000  0.68590000  1
  C  C454  1  0.14450000  0.18990000  0.69610000  1
  C  C455  1  0.21250000  0.13030000  0.66770000  1
  N  N456  1  0.12120000  0.75345000  0.50690000  1
  N  N457  1  0.12120000  0.75345000  0.24655000  1
  N  N458  1  0.12120000  0.49310000  0.24655000  1
  N  N459  1  0.12120000  0.24655000  0.49310000  1
  N  N460  1  0.12120000  0.24655000  0.75345000  1
  N  N461  1  0.12120000  0.50690000  0.75345000  1
  N  N462  1  0.87880000  0.24655000  0.49310000  1
  N  N463  1  0.87880000  0.50690000  0.75345000  1
  N  N464  1  0.87880000  0.24655000  0.75345000  1
  N  N465  1  0.87880000  0.75345000  0.50690000  1
  N  N466  1  0.87880000  0.49310000  0.24655000  1
  N  N467  1  0.87880000  0.75345000  0.24655000  1
  N  N468  1  0.00000000  0.80030000  0.50650000  1
  N  N469  1  0.00000000  0.70620000  0.19970000  1
  N  N470  1  0.00000000  0.49350000  0.29380000  1
  N  N471  1  1.00000000  0.19970000  0.49350000  1
  N  N472  1  1.00000000  0.29380000  0.80030000  1
  N  N473  1  1.00000000  0.50650000  0.70620000  1
  N  N474  1  1.00000000  0.29380000  0.49350000  1
  N  N475  1  1.00000000  0.50650000  0.80030000  1
  N  N476  1  1.00000000  0.19970000  0.70620000  1
  N  N477  1  0.00000000  0.70620000  0.50650000  1
  N  N478  1  0.00000000  0.49350000  0.19970000  1
  N  N479  1  0.00000000  0.80030000  0.29380000  1
  Cl  Cl480  1  0.00000000  0.72260000  0.44520000  1
  Cl  Cl481  1  0.00000000  0.55480000  0.27740000  1
  Cl  Cl482  1  1.00000000  0.27740000  0.72260000  1
  Cl  Cl483  1  0.00000000  0.57040000  0.78520000  1
  Cl  Cl484  1  1.00000000  0.21480000  0.42960000  1
  Cl  Cl485  1  0.00000000  0.78520000  0.21480000  1
  O  O486  1  0.35280000  0.94608000  0.53118000  1
  O  O487  1  0.41940000  0.90281000  0.48227000  1
  O  O488  1  0.35280000  0.58510000  0.05392000  1
  O  O489  1  0.41940000  0.57946000  0.09719000  1
  O  O490  1  0.35280000  0.46882000  0.41490000  1
  O  O491  1  0.41940000  0.51773000  0.42054000  1
  O  O492  1  0.35280000  0.05392000  0.46882000  1
  O  O493  1  0.41940000  0.09719000  0.51773000  1
  O  O494  1  0.35280000  0.41490000  0.94608000  1
  O  O495  1  0.41940000  0.42054000  0.90281000  1
  O  O496  1  0.35280000  0.53118000  0.58510000  1
  O  O497  1  0.41940000  0.48227000  0.57946000  1
  O  O498  1  0.64720000  0.41490000  0.46882000  1
  O  O499  1  0.58060000  0.42054000  0.51773000  1
  O  O500  1  0.64720000  0.53118000  0.94608000  1
  O  O501  1  0.58060000  0.48227000  0.90281000  1
  O  O502  1  0.64720000  0.05392000  0.58510000  1
  O  O503  1  0.58060000  0.09719000  0.57946000  1
  O  O504  1  0.64720000  0.58510000  0.53118000  1
  O  O505  1  0.58060000  0.57946000  0.48227000  1
  O  O506  1  0.64720000  0.46882000  0.05392000  1
  O  O507  1  0.58060000  0.51773000  0.09719000  1
  O  O508  1  0.64720000  0.94608000  0.41490000  1
  O  O509  1  0.58060000  0.90281000  0.42054000  1
  O  O510  1  0.64720000  0.05392000  0.46882000  1
  O  O511  1  0.58060000  0.09719000  0.51773000  1
  O  O512  1  0.64720000  0.41490000  0.94608000  1
  O  O513  1  0.58060000  0.42054000  0.90281000  1
  O  O514  1  0.64720000  0.53118000  0.58510000  1
  O  O515  1  0.58060000  0.48227000  0.57946000  1
  O  O516  1  0.64720000  0.94608000  0.53118000  1
  O  O517  1  0.58060000  0.90281000  0.48227000  1
  O  O518  1  0.64720000  0.58510000  0.05392000  1
  O  O519  1  0.58060000  0.57946000  0.09719000  1
  O  O520  1  0.64720000  0.46882000  0.41490000  1
  O  O521  1  0.58060000  0.51773000  0.42054000  1
  O  O522  1  0.35280000  0.58510000  0.53118000  1
  O  O523  1  0.41940000  0.57946000  0.48227000  1
  O  O524  1  0.35280000  0.46882000  0.05392000  1
  O  O525  1  0.41940000  0.51773000  0.09719000  1
  O  O526  1  0.35280000  0.94608000  0.41490000  1
  O  O527  1  0.41940000  0.90281000  0.42054000  1
  O  O528  1  0.35280000  0.41490000  0.46882000  1
  O  O529  1  0.41940000  0.42054000  0.51773000  1
  O  O530  1  0.35280000  0.53118000  0.94608000  1
  O  O531  1  0.41940000  0.48227000  0.90281000  1
  O  O532  1  0.35280000  0.05392000  0.58510000  1
  O  O533  1  0.41940000  0.09719000  0.57946000  1
  O  O534  1  0.50000000  0.96824000  0.44320000  1
  O  O535  1  0.50000000  0.47496000  0.03176000  1
  O  O536  1  0.50000000  0.55680000  0.52504000  1
  O  O537  1  0.50000000  0.03176000  0.55680000  1
  O  O538  1  0.50000000  0.52504000  0.96824000  1
  O  O539  1  0.50000000  0.44320000  0.47496000  1
  O  O540  1  0.50000000  0.52504000  0.55680000  1
  O  O541  1  0.50000000  0.44320000  0.96824000  1
  O  O542  1  0.50000000  0.03176000  0.47496000  1
  O  O543  1  0.50000000  0.47496000  0.44320000  1
  O  O544  1  0.50000000  0.55680000  0.03176000  1
  O  O545  1  0.50000000  0.96824000  0.52504000  1
  O  O546  1  0.60680000  0.96697000  0.48348000  1
  O  O547  1  0.60680000  0.51651000  0.03302000  1
  O  O548  1  0.60680000  0.51651000  0.48348000  1
  O  O549  1  0.60680000  0.03303000  0.51652000  1
  O  O550  1  0.60680000  0.48349000  0.96697000  1
  O  O551  1  0.60680000  0.48349000  0.51652000  1
  O  O552  1  0.39320000  0.48349000  0.51652000  1
  O  O553  1  0.39320000  0.48349000  0.96698000  1
  O  O554  1  0.39320000  0.03303000  0.51652000  1
  O  O555  1  0.39320000  0.51651000  0.48348000  1
  O  O556  1  0.39320000  0.51651000  0.03302000  1
  O  O557  1  0.39320000  0.96697000  0.48348000  1
