# generated using pymatgen
data_Zr3H7C24(SO6)4
_symmetry_space_group_name_H-M   'P 1'
_cell_length_a   17.71740000
_cell_length_b   17.71740000
_cell_length_c   22.48650000
_cell_angle_alpha   90.00000000
_cell_angle_beta   90.00000000
_cell_angle_gamma   90.00000000
_symmetry_Int_Tables_number   1
_chemical_formula_structural   Zr3H7C24(SO6)4
_chemical_formula_sum   'Zr12 H28 C96 S16 O96'
_cell_volume   7058.65317755
_cell_formula_units_Z   4
loop_
 _symmetry_equiv_pos_site_id
 _symmetry_equiv_pos_as_xyz
  1  'x, y, z'
loop_
 _atom_site_type_symbol
 _atom_site_label
 _atom_site_symmetry_multiplicity
 _atom_site_fract_x
 _atom_site_fract_y
 _atom_site_fract_z
 _atom_site_occupancy
  Zr  Zr0  1  0.00000000  0.00000000  0.39119000  1
  Zr  Zr1  1  0.50000000  0.50000000  0.89119000  1
  Zr  Zr2  1  0.00000000  0.00000000  0.60881000  1
  Zr  Zr3  1  0.50000000  0.50000000  0.10881000  1
  Zr  Zr4  1  0.90028000  0.09979000  0.50000000  1
  Zr  Zr5  1  0.40028000  0.59979000  0.00000000  1
  Zr  Zr6  1  0.09972000  0.90021000  0.50000000  1
  Zr  Zr7  1  0.59972000  0.40021000  0.00000000  1
  Zr  Zr8  1  0.90021000  0.90028000  0.50000000  1
  Zr  Zr9  1  0.40021000  0.40028000  0.00000000  1
  Zr  Zr10  1  0.09979000  0.09972000  0.50000000  1
  Zr  Zr11  1  0.59979000  0.59972000  0.00000000  1
  H  H12  1  0.79419000  0.74750000  0.62848000  1
  H  H13  1  0.29419000  0.24750000  0.12848000  1
  H  H14  1  0.20581000  0.25250000  0.62848000  1
  H  H15  1  0.70581000  0.75250000  0.12848000  1
  H  H16  1  0.25250000  0.79419000  0.62848000  1
  H  H17  1  0.75250000  0.29419000  0.12848000  1
  H  H18  1  0.74750000  0.20581000  0.62848000  1
  H  H19  1  0.20581000  0.25250000  0.37152000  1
  H  H20  1  0.70581000  0.75250000  0.87152000  1
  H  H21  1  0.79419000  0.74750000  0.37152000  1
  H  H22  1  0.29419000  0.24750000  0.87152000  1
  H  H23  1  0.74750000  0.20581000  0.37152000  1
  H  H24  1  0.24750000  0.70581000  0.87152000  1
  H  H25  1  0.75250000  0.29419000  0.87152000  1
  H  H26  1  0.18670000  0.73994000  0.37150000  1
  H  H27  1  0.31330000  0.76006000  0.12850000  1
  H  H28  1  0.63503000  0.57486000  0.74226000  1
  H  H29  1  0.63159000  0.41982000  0.74137000  1
  H  H30  1  0.86497000  0.92514000  0.75774000  1
  H  H31  1  0.86841000  0.08018000  0.75863000  1
  H  H32  1  0.86497000  0.92514000  0.24226000  1
  H  H33  1  0.63503000  0.57486000  0.25774000  1
  H  H34  1  0.13159000  0.91982000  0.24137000  1
  H  H35  1  0.36841000  0.58018000  0.25863000  1
  H  H36  1  0.42514000  0.63503000  0.74226000  1
  H  H37  1  0.07486000  0.86497000  0.75774000  1
  H  H38  1  0.92514000  0.13503000  0.24226000  1
  H  H39  1  0.57486000  0.36497000  0.25774000  1
  C  C40  1  0.13380000  0.16490000  0.25120000  1
  C  C41  1  0.12170000  0.12400000  0.35690000  1
  C  C42  1  0.16460000  0.16490000  0.30930000  1
  C  C43  1  0.25680000  0.25850000  0.27930000  1
  C  C44  1  0.17220000  0.20840000  0.20440000  1
  C  C45  1  0.20740000  0.22640000  0.32520000  1
  C  C46  1  0.62170000  0.62400000  0.85690000  1
  C  C47  1  0.66460000  0.66490000  0.80930000  1
  C  C48  1  0.75680000  0.75850000  0.77930000  1
  C  C49  1  0.66500000  0.63090000  0.75020000  1
  C  C50  1  0.70740000  0.72640000  0.82520000  1
  C  C51  1  0.70520000  0.67400000  0.70620000  1
  C  C52  1  0.87830000  0.87600000  0.35690000  1
  C  C53  1  0.83540000  0.83510000  0.30930000  1
  C  C54  1  0.74320000  0.74150000  0.27930000  1
  C  C55  1  0.83500000  0.86910000  0.25020000  1
  C  C56  1  0.79260000  0.77360000  0.32520000  1
  C  C57  1  0.79480000  0.82600000  0.20620000  1
  C  C58  1  0.37830000  0.37600000  0.85690000  1
  C  C59  1  0.33540000  0.33510000  0.80930000  1
  C  C60  1  0.24320000  0.24150000  0.77930000  1
  C  C61  1  0.33500000  0.36910000  0.75020000  1
  C  C62  1  0.29260000  0.27360000  0.82520000  1
  C  C63  1  0.29480000  0.32600000  0.70620000  1
  C  C64  1  0.87600000  0.12170000  0.35690000  1
  C  C65  1  0.83510000  0.16460000  0.30930000  1
  C  C66  1  0.74150000  0.25680000  0.27930000  1
  C  C67  1  0.86910000  0.16500000  0.25020000  1
  C  C68  1  0.77360000  0.20740000  0.32520000  1
  C  C69  1  0.82600000  0.20520000  0.20620000  1
  C  C70  1  0.37600000  0.62170000  0.85690000  1
  C  C71  1  0.33510000  0.66460000  0.80930000  1
  C  C72  1  0.24150000  0.75680000  0.77930000  1
  C  C73  1  0.36910000  0.66500000  0.75020000  1
  C  C74  1  0.27360000  0.70740000  0.82520000  1
  C  C75  1  0.32600000  0.70520000  0.70620000  1
  C  C76  1  0.16490000  0.86620000  0.25120000  1
  C  C77  1  0.20170000  0.76740000  0.32720000  1
  C  C78  1  0.12400000  0.87830000  0.35690000  1
  C  C79  1  0.16490000  0.83540000  0.30930000  1
  C  C80  1  0.25850000  0.74320000  0.27930000  1
  C  C81  1  0.20840000  0.82780000  0.20440000  1
  C  C82  1  0.66490000  0.36620000  0.75120000  1
  C  C83  1  0.62400000  0.37830000  0.85690000  1
  C  C84  1  0.66490000  0.33540000  0.80930000  1
  C  C85  1  0.75850000  0.24320000  0.77930000  1
  C  C86  1  0.70840000  0.32780000  0.70440000  1
  C  C87  1  0.72640000  0.29260000  0.82520000  1
  C  C88  1  0.87830000  0.87600000  0.64310000  1
  C  C89  1  0.83540000  0.83510000  0.69070000  1
  C  C90  1  0.74320000  0.74150000  0.72070000  1
  C  C91  1  0.83500000  0.86910000  0.74980000  1
  C  C92  1  0.79260000  0.77360000  0.67480000  1
  C  C93  1  0.79480000  0.82600000  0.79380000  1
  C  C94  1  0.37830000  0.37600000  0.14310000  1
  C  C95  1  0.33540000  0.33510000  0.19070000  1
  C  C96  1  0.24320000  0.24150000  0.22070000  1
  C  C97  1  0.33500000  0.36910000  0.24980000  1
  C  C98  1  0.29260000  0.27360000  0.17480000  1
  C  C99  1  0.29480000  0.32600000  0.29380000  1
  C  C100  1  0.12170000  0.12400000  0.64310000  1
  C  C101  1  0.16460000  0.16490000  0.69070000  1
  C  C102  1  0.25680000  0.25850000  0.72070000  1
  C  C103  1  0.16500000  0.13090000  0.74980000  1
  C  C104  1  0.20740000  0.22640000  0.67480000  1
  C  C105  1  0.20520000  0.17400000  0.79380000  1
  C  C106  1  0.62170000  0.62400000  0.14310000  1
  C  C107  1  0.66460000  0.66490000  0.19070000  1
  C  C108  1  0.75680000  0.75850000  0.22070000  1
  C  C109  1  0.66500000  0.63090000  0.24980000  1
  C  C110  1  0.70740000  0.72640000  0.17480000  1
  C  C111  1  0.70520000  0.67400000  0.29380000  1
  C  C112  1  0.12400000  0.87830000  0.64310000  1
  C  C113  1  0.16490000  0.83540000  0.69070000  1
  C  C114  1  0.25850000  0.74320000  0.72070000  1
  C  C115  1  0.13090000  0.83500000  0.74980000  1
  C  C116  1  0.22640000  0.79260000  0.67480000  1
  C  C117  1  0.17400000  0.79480000  0.79380000  1
  C  C118  1  0.62400000  0.37830000  0.14310000  1
  C  C119  1  0.66490000  0.33540000  0.19070000  1
  C  C120  1  0.75850000  0.24320000  0.22070000  1
  C  C121  1  0.63090000  0.33500000  0.24980000  1
  C  C122  1  0.72640000  0.29260000  0.17480000  1
  C  C123  1  0.67400000  0.29480000  0.29380000  1
  C  C124  1  0.83510000  0.13380000  0.74880000  1
  C  C125  1  0.87600000  0.12170000  0.64310000  1
  C  C126  1  0.83510000  0.16460000  0.69070000  1
  C  C127  1  0.74150000  0.25680000  0.72070000  1
  C  C128  1  0.79160000  0.17220000  0.79560000  1
  C  C129  1  0.77360000  0.20740000  0.67480000  1
  C  C130  1  0.33510000  0.63380000  0.24880000  1
  C  C131  1  0.29830000  0.73260000  0.17280000  1
  C  C132  1  0.37600000  0.62170000  0.14310000  1
  C  C133  1  0.33510000  0.66460000  0.19070000  1
  C  C134  1  0.24150000  0.75680000  0.22070000  1
  C  C135  1  0.29160000  0.67220000  0.29560000  1
  S  S136  1  0.16270000  0.16990000  0.12760000  1
  S  S137  1  0.69490000  0.63920000  0.63000000  1
  S  S138  1  0.80510000  0.86080000  0.13000000  1
  S  S139  1  0.30510000  0.36080000  0.63000000  1
  S  S140  1  0.86080000  0.19490000  0.13000000  1
  S  S141  1  0.36080000  0.69490000  0.63000000  1
  S  S142  1  0.16990000  0.83730000  0.12760000  1
  S  S143  1  0.80510000  0.86080000  0.87000000  1
  S  S144  1  0.30510000  0.36080000  0.37000000  1
  S  S145  1  0.19490000  0.13920000  0.87000000  1
  S  S146  1  0.69490000  0.63920000  0.37000000  1
  S  S147  1  0.13920000  0.80510000  0.87000000  1
  S  S148  1  0.63920000  0.30510000  0.37000000  1
  S  S149  1  0.83010000  0.16270000  0.87240000  1
  S  S150  1  0.33010000  0.66270000  0.37240000  1
  S  S151  1  0.66990000  0.33730000  0.62760000  1
  O  O152  1  0.07470000  0.07430000  0.33970000  1
  O  O153  1  0.13960000  0.13860000  0.41030000  1
  O  O154  1  0.11680000  0.09740000  0.13040000  1
  O  O155  1  0.13080000  0.24860000  0.10600000  1
  O  O156  1  0.24000000  0.14060000  0.10150000  1
  O  O157  1  0.99980000  0.11150000  0.44100000  1
  O  O158  1  0.57470000  0.57430000  0.83970000  1
  O  O159  1  0.63960000  0.63860000  0.91030000  1
  O  O160  1  0.67700000  0.55000000  0.64200000  1
  O  O161  1  0.78020000  0.61700000  0.62100000  1
  O  O162  1  0.66190000  0.71140000  0.59760000  1
  O  O163  1  0.49980000  0.61150000  0.94100000  1
  O  O164  1  0.92530000  0.92570000  0.33970000  1
  O  O165  1  0.86040000  0.86140000  0.41030000  1
  O  O166  1  0.88320000  0.90260000  0.13040000  1
  O  O167  1  0.71980000  0.88300000  0.12100000  1
  O  O168  1  0.83810000  0.78860000  0.09760000  1
  O  O169  1  0.00020000  0.88850000  0.44100000  1
  O  O170  1  0.42530000  0.42570000  0.83970000  1
  O  O171  1  0.36040000  0.36140000  0.91030000  1
  O  O172  1  0.38320000  0.40260000  0.63040000  1
  O  O173  1  0.21980000  0.38300000  0.62100000  1
  O  O174  1  0.33810000  0.28860000  0.59760000  1
  O  O175  1  0.50020000  0.38850000  0.94100000  1
  O  O176  1  0.92570000  0.07470000  0.33970000  1
  O  O177  1  0.86140000  0.13960000  0.41030000  1
  O  O178  1  0.95000000  0.17700000  0.14200000  1
  O  O179  1  0.88300000  0.28020000  0.12100000  1
  O  O180  1  0.78860000  0.16190000  0.09760000  1
  O  O181  1  0.88850000  0.99980000  0.44100000  1
  O  O182  1  0.42570000  0.57470000  0.83970000  1
  O  O183  1  0.36140000  0.63960000  0.91030000  1
  O  O184  1  0.40260000  0.61680000  0.63040000  1
  O  O185  1  0.38300000  0.78020000  0.62100000  1
  O  O186  1  0.28860000  0.66190000  0.59760000  1
  O  O187  1  0.38850000  0.49980000  0.94100000  1
  O  O188  1  0.07430000  0.92530000  0.33970000  1
  O  O189  1  0.13860000  0.86040000  0.41030000  1
  O  O190  1  0.09740000  0.88320000  0.13040000  1
  O  O191  1  0.24860000  0.86920000  0.10600000  1
  O  O192  1  0.14060000  0.76000000  0.10150000  1
  O  O193  1  0.11150000  0.00020000  0.44100000  1
  O  O194  1  0.57430000  0.42530000  0.83970000  1
  O  O195  1  0.63860000  0.36040000  0.91030000  1
  O  O196  1  0.59740000  0.38320000  0.63040000  1
  O  O197  1  0.74860000  0.36920000  0.60600000  1
  O  O198  1  0.61150000  0.50020000  0.94100000  1
  O  O199  1  0.92530000  0.92570000  0.66030000  1
  O  O200  1  0.86040000  0.86140000  0.58970000  1
  O  O201  1  0.82300000  0.95000000  0.85800000  1
  O  O202  1  0.71980000  0.88300000  0.87900000  1
  O  O203  1  0.83810000  0.78860000  0.90240000  1
  O  O204  1  0.00020000  0.88850000  0.55900000  1
  O  O205  1  0.42530000  0.42570000  0.16030000  1
  O  O206  1  0.36040000  0.36140000  0.08970000  1
  O  O207  1  0.38320000  0.40260000  0.36960000  1
  O  O208  1  0.21980000  0.38300000  0.37900000  1
  O  O209  1  0.33810000  0.28860000  0.40240000  1
  O  O210  1  0.50020000  0.38850000  0.05900000  1
  O  O211  1  0.07470000  0.07430000  0.66030000  1
  O  O212  1  0.13960000  0.13860000  0.58970000  1
  O  O213  1  0.17700000  0.05000000  0.85800000  1
  O  O214  1  0.28020000  0.11700000  0.87900000  1
  O  O215  1  0.16190000  0.21140000  0.90240000  1
  O  O216  1  0.99980000  0.11150000  0.55900000  1
  O  O217  1  0.57470000  0.57430000  0.16030000  1
  O  O218  1  0.63960000  0.63860000  0.08970000  1
  O  O219  1  0.61680000  0.59740000  0.36960000  1
  O  O220  1  0.78020000  0.61700000  0.37900000  1
  O  O221  1  0.66190000  0.71140000  0.40240000  1
  O  O222  1  0.49980000  0.61150000  0.05900000  1
  O  O223  1  0.07430000  0.92530000  0.66030000  1
  O  O224  1  0.13860000  0.86040000  0.58970000  1
  O  O225  1  0.05000000  0.82300000  0.85800000  1
  O  O226  1  0.11700000  0.71980000  0.87900000  1
  O  O227  1  0.21140000  0.83810000  0.90240000  1
  O  O228  1  0.11150000  0.00020000  0.55900000  1
  O  O229  1  0.57430000  0.42530000  0.16030000  1
  O  O230  1  0.63860000  0.36040000  0.08970000  1
  O  O231  1  0.59740000  0.38320000  0.36960000  1
  O  O232  1  0.61700000  0.21980000  0.37900000  1
  O  O233  1  0.71140000  0.33810000  0.40240000  1
  O  O234  1  0.61150000  0.50020000  0.05900000  1
  O  O235  1  0.92570000  0.07470000  0.66030000  1
  O  O236  1  0.86140000  0.13960000  0.58970000  1
  O  O237  1  0.75140000  0.13080000  0.89400000  1
  O  O238  1  0.95000000  0.17700000  0.85800000  1
  O  O239  1  0.85000000  0.07000000  0.86300000  1
  O  O240  1  0.88850000  0.99980000  0.55900000  1
  O  O241  1  0.42570000  0.57470000  0.16030000  1
  O  O242  1  0.36140000  0.63960000  0.08970000  1
  O  O243  1  0.40260000  0.61680000  0.36960000  1
  O  O244  1  0.25140000  0.63080000  0.39400000  1
  O  O245  1  0.35940000  0.74000000  0.39850000  1
  O  O246  1  0.38850000  0.49980000  0.05900000  1
  O  O247  1  0.64060000  0.26000000  0.60150000  1
