# generated using pymatgen
data_Zr3H8C24(SO6)4
_symmetry_space_group_name_H-M   'P 1'
_cell_length_a   16.87017191
_cell_length_b   16.87017191
_cell_length_c   16.87017191
_cell_angle_alpha   94.54610565
_cell_angle_beta   117.41094403
_cell_angle_gamma   117.41094403
_symmetry_Int_Tables_number   1
_chemical_formula_structural   Zr3H8C24(SO6)4
_chemical_formula_sum   'Zr6 H16 C48 S8 O48'
_cell_volume   3515.91467783
_cell_formula_units_Z   2
loop_
 _symmetry_equiv_pos_site_id
 _symmetry_equiv_pos_as_xyz
  1  'x, y, z'
loop_
 _atom_site_type_symbol
 _atom_site_label
 _atom_site_symmetry_multiplicity
 _atom_site_fract_x
 _atom_site_fract_y
 _atom_site_fract_z
 _atom_site_occupancy
  C  C0  1  0.36920000  0.94910000  0.99190000  1
  C  C1  1  0.29900000  0.87280000  0.91780000  1
  C  C2  1  0.25090000  0.76880000  0.76890000  1
  C  C3  1  0.32780000  0.85240000  0.85220000  1
  C  C4  1  0.51470000  0.98120000  0.97890000  1
  C  C5  1  0.43920000  0.89660000  0.89420000  1
  C  C6  1  0.95720000  0.57990000  0.94910000  1
  C  C7  1  0.95500000  0.57380000  0.87280000  1
  C  C8  1  0.99990000  0.51790000  0.76880000  1
  C  C9  1  0.00020000  0.52460000  0.85240000  1
  C  C10  1  0.00230000  0.46650000  0.98120000  1
  C  C11  1  0.00240000  0.45740000  0.89660000  1
  C  C12  1  0.63080000  0.62270000  0.57990000  1
  C  C13  1  0.70100000  0.61880000  0.57380000  1
  C  C14  1  0.74910000  0.51800000  0.51790000  1
  C  C15  1  0.67220000  0.52440000  0.52460000  1
  C  C16  1  0.48530000  0.46420000  0.46650000  1
  C  C17  1  0.56080000  0.45500000  0.45740000  1
  C  C18  1  0.04280000  0.99190000  0.62270000  1
  C  C19  1  0.04500000  0.91780000  0.61880000  1
  C  C20  1  0.00010000  0.76890000  0.51800000  1
  C  C21  1  0.99980000  0.85220000  0.52440000  1
  C  C22  1  0.99770000  0.97890000  0.46420000  1
  C  C23  1  0.99760000  0.89420000  0.45500000  1
  C  C24  1  0.63080000  0.05090000  0.00810000  1
  C  C25  1  0.70100000  0.12720000  0.08220000  1
  C  C26  1  0.74910000  0.23120000  0.23110000  1
  C  C27  1  0.67220000  0.14760000  0.14780000  1
  C  C28  1  0.48530000  0.01880000  0.02110000  1
  C  C29  1  0.56080000  0.10340000  0.10580000  1
  C  C30  1  0.04280000  0.42010000  0.05090000  1
  C  C31  1  0.04500000  0.42620000  0.12720000  1
  C  C32  1  0.00010000  0.48210000  0.23120000  1
  C  C33  1  0.99980000  0.47540000  0.14760000  1
  C  C34  1  0.99770000  0.53350000  0.01880000  1
  C  C35  1  0.99760000  0.54260000  0.10340000  1
  C  C36  1  0.36920000  0.37730000  0.42010000  1
  C  C37  1  0.29900000  0.38120000  0.42620000  1
  C  C38  1  0.25090000  0.48200000  0.48210000  1
  C  C39  1  0.32780000  0.47560000  0.47540000  1
  C  C40  1  0.51470000  0.53580000  0.53350000  1
  C  C41  1  0.43920000  0.54500000  0.54260000  1
  C  C42  1  0.95720000  0.00810000  0.37730000  1
  C  C43  1  0.95500000  0.08220000  0.38120000  1
  C  C44  1  0.99990000  0.23110000  0.48200000  1
  C  C45  1  0.00020000  0.14780000  0.47560000  1
  C  C46  1  0.00230000  0.02110000  0.53580000  1
  C  C47  1  0.00240000  0.10580000  0.54500000  1
  H  H48  1  0.46791000  0.86457000  0.86034000  1
  H  H49  1  0.21606000  0.82200000  0.90330000  1
  H  H50  1  0.00423000  0.39666000  0.86457000  1
  H  H51  1  0.91870000  0.60594000  0.82200000  1
  H  H52  1  0.53209000  0.39243000  0.39666000  1
  H  H53  1  0.78394000  0.68724000  0.60594000  1
  H  H54  1  0.99577000  0.86034000  0.39243000  1
  H  H55  1  0.08130000  0.90330000  0.68724000  1
  H  H56  1  0.53209000  0.13543000  0.13966000  1
  H  H57  1  0.78394000  0.17800000  0.09670000  1
  H  H58  1  0.99577000  0.60334000  0.13543000  1
  H  H59  1  0.08130000  0.39406000  0.17800000  1
  H  H60  1  0.46791000  0.60757000  0.60334000  1
  H  H61  1  0.21606000  0.31276000  0.39406000  1
  H  H62  1  0.00423000  0.13966000  0.60757000  1
  H  H63  1  0.91870000  0.09670000  0.31276000  1
  O  O64  1  0.09970000  0.55260000  0.65090000  1
  O  O65  1  0.28310000  0.73150000  0.73020000  1
  O  O66  1  0.14950000  0.73250000  0.73260000  1
  O  O67  1  0.21600000  0.89700000  0.02500000  1
  O  O68  1  0.38900000  0.98600000  0.16500000  1
  O  O69  1  0.35240000  0.09280000  0.05920000  1
  O  O70  1  0.90170000  0.45290000  0.55260000  1
  O  O71  1  0.00130000  0.44840000  0.73150000  1
  O  O72  1  0.99990000  0.58300000  0.73250000  1
  O  O73  1  0.87200000  0.68100000  0.89700000  1
  O  O74  1  0.82100000  0.59700000  0.98600000  1
  O  O75  1  0.03360000  0.74040000  0.09280000  1
  O  O76  1  0.90030000  0.55120000  0.45290000  1
  O  O77  1  0.71690000  0.44710000  0.44840000  1
  O  O78  1  0.85050000  0.58310000  0.58300000  1
  O  O79  1  0.78400000  0.80900000  0.68100000  1
  O  O80  1  0.61100000  0.77600000  0.59700000  1
  O  O81  1  0.64760000  0.70680000  0.74040000  1
  O  O82  1  0.09830000  0.65090000  0.55120000  1
  O  O83  1  0.99870000  0.73020000  0.44710000  1
  O  O84  1  0.00010000  0.73260000  0.58310000  1
  O  O85  1  0.12800000  0.02500000  0.80900000  1
  O  O86  1  0.17900000  0.16500000  0.77600000  1
  O  O87  1  0.96640000  0.05920000  0.70680000  1
  O  O88  1  0.90030000  0.44740000  0.34910000  1
  O  O89  1  0.71690000  0.26850000  0.26980000  1
  O  O90  1  0.85050000  0.26750000  0.26740000  1
  O  O91  1  0.78400000  0.10300000  0.97500000  1
  O  O92  1  0.61100000  0.01400000  0.83500000  1
  O  O93  1  0.64760000  0.90720000  0.94080000  1
  O  O94  1  0.09830000  0.54710000  0.44740000  1
  O  O95  1  0.99870000  0.55160000  0.26850000  1
  O  O96  1  0.00010000  0.41700000  0.26750000  1
  O  O97  1  0.12800000  0.31900000  0.10300000  1
  O  O98  1  0.17900000  0.40300000  0.01400000  1
  O  O99  1  0.96640000  0.25960000  0.90720000  1
  O  O100  1  0.09970000  0.44880000  0.54710000  1
  O  O101  1  0.28310000  0.55290000  0.55160000  1
  O  O102  1  0.14950000  0.41690000  0.41700000  1
  O  O103  1  0.21600000  0.19100000  0.31900000  1
  O  O104  1  0.38900000  0.22400000  0.40300000  1
  O  O105  1  0.35240000  0.29320000  0.25960000  1
  O  O106  1  0.90170000  0.34910000  0.44880000  1
  O  O107  1  0.00130000  0.26980000  0.55290000  1
  O  O108  1  0.99990000  0.26740000  0.41690000  1
  O  O109  1  0.87200000  0.97500000  0.19100000  1
  O  O110  1  0.82100000  0.83500000  0.22400000  1
  O  O111  1  0.03360000  0.94080000  0.29320000  1
  S  S112  1  0.32850000  0.98610000  0.06160000  1
  S  S113  1  0.92450000  0.65760000  0.98610000  1
  S  S114  1  0.67150000  0.73310000  0.65760000  1
  S  S115  1  0.07550000  0.06160000  0.73310000  1
  S  S116  1  0.67150000  0.01390000  0.93840000  1
  S  S117  1  0.07550000  0.34240000  0.01390000  1
  S  S118  1  0.32850000  0.26690000  0.34240000  1
  S  S119  1  0.92450000  0.93840000  0.26690000  1
  Zr  Zr120  1  0.00000000  0.60672000  0.60672000  1
  Zr  Zr121  1  0.20291000  0.60144000  0.60147000  1
  Zr  Zr122  1  0.99997000  0.39853000  0.60144000  1
  Zr  Zr123  1  0.79709000  0.39856000  0.39853000  1
  Zr  Zr124  1  0.00003000  0.60147000  0.39856000  1
  Zr  Zr125  1  0.00000000  0.39328000  0.39328000  1
