# generated using pymatgen
data_Zr3H15C27O10
_symmetry_space_group_name_H-M   'P 1'
_cell_length_a   20.34290000
_cell_length_b   26.42974927
_cell_length_c   26.42974927
_cell_angle_alpha   81.48267933
_cell_angle_beta   67.36566322
_cell_angle_gamma   67.36566322
_symmetry_Int_Tables_number   1
_chemical_formula_structural   Zr3H15C27O10
_chemical_formula_sum   'Zr24 H120 C216 O80'
_cell_volume   12105.51564031
_cell_formula_units_Z   8
loop_
 _symmetry_equiv_pos_site_id
 _symmetry_equiv_pos_as_xyz
  1  'x, y, z'
loop_
 _atom_site_type_symbol
 _atom_site_label
 _atom_site_symmetry_multiplicity
 _atom_site_fract_x
 _atom_site_fract_y
 _atom_site_fract_z
 _atom_site_occupancy
  C  C0  1  0.32799000  0.91851000  0.91391000  1
  C  C1  1  0.26194000  0.91186000  0.94926000  1
  C  C2  1  0.22015000  0.89345000  0.93105000  1
  C  C3  1  0.24525000  0.88075000  0.87595000  1
  C  C4  1  0.31216000  0.88944000  0.83804000  1
  C  C5  1  0.35230000  0.90850000  0.85870000  1
  C  C6  1  0.20339000  0.85741000  0.85381000  1
  C  C7  1  0.24253000  0.81807000  0.81387000  1
  C  C8  1  0.30558000  0.75912000  0.70552000  1
  C  C9  1  0.34561000  0.71849000  0.66629000  1
  C  C10  1  0.37188000  0.93922000  0.93662000  1
  C  C11  1  0.12290000  0.87710000  0.87710000  1
  C  C12  1  0.20400000  0.79600000  0.79600000  1
  C  C13  1  0.24690000  0.75310000  0.75310000  1
  C  C14  1  0.32800000  0.67200000  0.67200000  1
  C  C15  1  0.37100000  0.62900000  0.62900000  1
  C  C16  1  0.24650000  0.91391000  0.58149000  1
  C  C17  1  0.17380000  0.94926000  0.58814000  1
  C  C18  1  0.11360000  0.93105000  0.60655000  1
  C  C19  1  0.12600000  0.87595000  0.61925000  1
  C  C20  1  0.20160000  0.83804000  0.61056000  1
  C  C21  1  0.26080000  0.85870000  0.59150000  1
  C  C22  1  0.06080000  0.85381000  0.64259000  1
  C  C23  1  0.06060000  0.81387000  0.68193000  1
  C  C24  1  0.06470000  0.70552000  0.74088000  1
  C  C25  1  0.06410000  0.66629000  0.78151000  1
  C  C26  1  0.31110000  0.93662000  0.56078000  1
  C  C27  1  0.00000000  0.87710000  0.62290000  1
  C  C28  1  0.00000000  0.79600000  0.70400000  1
  C  C29  1  0.00000000  0.75310000  0.74690000  1
  C  C30  1  0.00000000  0.67200000  0.82800000  1
  C  C31  1  0.00000000  0.62900000  0.87100000  1
  C  C32  1  0.16041000  0.58149000  0.58609000  1
  C  C33  1  0.12306000  0.58814000  0.55074000  1
  C  C34  1  0.04465000  0.60655000  0.56895000  1
  C  C35  1  0.00195000  0.61925000  0.62405000  1
  C  C36  1  0.03964000  0.61056000  0.66196000  1
  C  C37  1  0.11950000  0.59150000  0.64130000  1
  C  C38  1  0.91461000  0.64259000  0.64619000  1
  C  C39  1  0.87447000  0.68193000  0.68613000  1
  C  C40  1  0.77022000  0.74088000  0.79448000  1
  C  C41  1  0.73039000  0.78151000  0.83371000  1
  C  C42  1  0.24772000  0.56078000  0.56338000  1
  C  C43  1  0.87710000  0.62290000  0.62290000  1
  C  C44  1  0.79600000  0.70400000  0.70400000  1
  C  C45  1  0.75310000  0.74690000  0.74690000  1
  C  C46  1  0.67200000  0.82800000  0.82800000  1
  C  C47  1  0.62900000  0.87100000  0.87100000  1
  C  C48  1  0.74190000  0.58609000  0.91851000  1
  C  C49  1  0.71120000  0.55074000  0.91186000  1
  C  C50  1  0.65120000  0.56895000  0.89345000  1
  C  C51  1  0.62120000  0.62405000  0.88075000  1
  C  C52  1  0.65020000  0.66196000  0.88944000  1
  C  C53  1  0.71100000  0.64130000  0.90850000  1
  C  C54  1  0.55720000  0.64619000  0.85741000  1
  C  C55  1  0.55640000  0.68613000  0.81807000  1
  C  C56  1  0.51110000  0.79448000  0.75912000  1
  C  C57  1  0.51190000  0.83371000  0.71849000  1
  C  C58  1  0.80850000  0.56338000  0.93922000  1
  C  C59  1  0.50000000  0.62290000  0.87710000  1
  C  C60  1  0.50000000  0.70400000  0.79600000  1
  C  C61  1  0.50000000  0.74690000  0.75310000  1
  C  C62  1  0.50000000  0.82800000  0.67200000  1
  C  C63  1  0.50000000  0.87100000  0.62900000  1
  C  C64  1  0.83959000  0.91391000  0.91851000  1
  C  C65  1  0.87694000  0.94926000  0.91186000  1
  C  C66  1  0.95535000  0.93105000  0.89345000  1
  C  C67  1  0.99805000  0.87595000  0.88075000  1
  C  C68  1  0.96036000  0.83804000  0.88944000  1
  C  C69  1  0.88050000  0.85870000  0.90850000  1
  C  C70  1  0.08539000  0.85381000  0.85741000  1
  C  C71  1  0.12553000  0.81387000  0.81807000  1
  C  C72  1  0.22978000  0.70552000  0.75912000  1
  C  C73  1  0.26961000  0.66629000  0.71849000  1
  C  C74  1  0.75228000  0.93662000  0.93922000  1
  C  C75  1  0.75350000  0.91851000  0.58609000  1
  C  C76  1  0.82620000  0.91186000  0.55074000  1
  C  C77  1  0.88640000  0.89345000  0.56895000  1
  C  C78  1  0.87400000  0.88075000  0.62405000  1
  C  C79  1  0.79840000  0.88944000  0.66196000  1
  C  C80  1  0.73920000  0.90850000  0.64130000  1
  C  C81  1  0.93920000  0.85741000  0.64619000  1
  C  C82  1  0.93940000  0.81807000  0.68613000  1
  C  C83  1  0.93530000  0.75912000  0.79448000  1
  C  C84  1  0.93590000  0.71849000  0.83371000  1
  C  C85  1  0.68890000  0.93922000  0.56338000  1
  C  C86  1  0.67201000  0.58609000  0.58149000  1
  C  C87  1  0.73806000  0.55074000  0.58814000  1
  C  C88  1  0.77985000  0.56895000  0.60655000  1
  C  C89  1  0.75475000  0.62405000  0.61925000  1
  C  C90  1  0.68784000  0.66196000  0.61056000  1
  C  C91  1  0.64770000  0.64130000  0.59150000  1
  C  C92  1  0.79661000  0.64619000  0.64259000  1
  C  C93  1  0.75747000  0.68613000  0.68193000  1
  C  C94  1  0.69442000  0.79448000  0.74088000  1
  C  C95  1  0.65439000  0.83371000  0.78151000  1
  C  C96  1  0.62812000  0.56338000  0.56078000  1
  C  C97  1  0.25810000  0.58149000  0.91391000  1
  C  C98  1  0.28880000  0.58814000  0.94926000  1
  C  C99  1  0.34880000  0.60655000  0.93105000  1
  C  C100  1  0.37880000  0.61925000  0.87595000  1
  C  C101  1  0.34980000  0.61056000  0.83804000  1
  C  C102  1  0.28900000  0.59150000  0.85870000  1
  C  C103  1  0.44280000  0.64259000  0.85381000  1
  C  C104  1  0.44360000  0.68193000  0.81387000  1
  C  C105  1  0.48890000  0.74088000  0.70552000  1
  C  C106  1  0.48810000  0.78151000  0.66629000  1
  C  C107  1  0.19150000  0.56078000  0.93662000  1
  C  C108  1  0.67201000  0.08149000  0.08609000  1
  C  C109  1  0.73806000  0.08814000  0.05074000  1
  C  C110  1  0.77985000  0.10655000  0.06895000  1
  C  C111  1  0.75475000  0.11925000  0.12405000  1
  C  C112  1  0.68784000  0.11056000  0.16196000  1
  C  C113  1  0.64770000  0.09150000  0.14130000  1
  C  C114  1  0.79661000  0.14259000  0.14619000  1
  C  C115  1  0.75747000  0.18193000  0.18613000  1
  C  C116  1  0.69442000  0.24088000  0.29448000  1
  C  C117  1  0.65439000  0.28151000  0.33371000  1
  C  C118  1  0.62812000  0.06078000  0.06338000  1
  C  C119  1  0.87710000  0.12290000  0.12290000  1
  C  C120  1  0.79600000  0.20400000  0.20400000  1
  C  C121  1  0.75310000  0.24690000  0.24690000  1
  C  C122  1  0.67200000  0.32800000  0.32800000  1
  C  C123  1  0.62900000  0.37100000  0.37100000  1
  C  C124  1  0.75350000  0.08609000  0.41851000  1
  C  C125  1  0.82620000  0.05074000  0.41186000  1
  C  C126  1  0.88640000  0.06895000  0.39345000  1
  C  C127  1  0.87400000  0.12405000  0.38075000  1
  C  C128  1  0.79840000  0.16196000  0.38944000  1
  C  C129  1  0.73920000  0.14130000  0.40850000  1
  C  C130  1  0.93920000  0.14619000  0.35741000  1
  C  C131  1  0.93940000  0.18613000  0.31807000  1
  C  C132  1  0.93530000  0.29448000  0.25912000  1
  C  C133  1  0.93590000  0.33371000  0.21849000  1
  C  C134  1  0.68890000  0.06338000  0.43922000  1
  C  C135  1  0.00000000  0.12290000  0.37710000  1
  C  C136  1  0.00000000  0.20400000  0.29600000  1
  C  C137  1  0.00000000  0.24690000  0.25310000  1
  C  C138  1  1.00000000  0.32800000  0.17200000  1
  C  C139  1  0.00000000  0.37100000  0.12900000  1
  C  C140  1  0.83959000  0.41851000  0.41391000  1
  C  C141  1  0.87694000  0.41186000  0.44926000  1
  C  C142  1  0.95535000  0.39345000  0.43105000  1
  C  C143  1  0.99805000  0.38075000  0.37595000  1
  C  C144  1  0.96036000  0.38944000  0.33804000  1
  C  C145  1  0.88050000  0.40850000  0.35870000  1
  C  C146  1  0.08539000  0.35741000  0.35381000  1
  C  C147  1  0.12553000  0.31807000  0.31387000  1
  C  C148  1  0.22978000  0.25912000  0.20552000  1
  C  C149  1  0.26961000  0.21849000  0.16629000  1
  C  C150  1  0.75228000  0.43922000  0.43662000  1
  C  C151  1  0.12290000  0.37710000  0.37710000  1
  C  C152  1  0.20400000  0.29600000  0.29600000  1
  C  C153  1  0.24690000  0.25310000  0.25310000  1
  C  C154  1  0.32800000  0.17200000  0.17200000  1
  C  C155  1  0.37100000  0.12900000  0.12900000  1
  C  C156  1  0.25810000  0.41391000  0.08149000  1
  C  C157  1  0.28880000  0.44926000  0.08814000  1
  C  C158  1  0.34880000  0.43105000  0.10655000  1
  C  C159  1  0.37880000  0.37595000  0.11925000  1
  C  C160  1  0.34980000  0.33804000  0.11056000  1
  C  C161  1  0.28900000  0.35870000  0.09150000  1
  C  C162  1  0.44280000  0.35381000  0.14259000  1
  C  C163  1  0.44360000  0.31387000  0.18193000  1
  C  C164  1  0.48890000  0.20552000  0.24088000  1
  C  C165  1  0.48810000  0.16629000  0.28151000  1
  C  C166  1  0.19150000  0.43662000  0.06078000  1
  C  C167  1  0.50000000  0.37710000  0.12290000  1
  C  C168  1  0.50000000  0.29600000  0.20400000  1
  C  C169  1  0.50000000  0.25310000  0.24690000  1
  C  C170  1  0.50000000  0.17200000  0.32800000  1
  C  C171  1  0.50000000  0.12900000  0.37100000  1
  C  C172  1  0.16041000  0.08609000  0.08149000  1
  C  C173  1  0.12306000  0.05074000  0.08814000  1
  C  C174  1  0.04465000  0.06895000  0.10655000  1
  C  C175  1  0.00195000  0.12405000  0.11925000  1
  C  C176  1  0.03964000  0.16196000  0.11056000  1
  C  C177  1  0.11950000  0.14130000  0.09150000  1
  C  C178  1  0.91461000  0.14619000  0.14259000  1
  C  C179  1  0.87447000  0.18613000  0.18193000  1
  C  C180  1  0.77022000  0.29448000  0.24088000  1
  C  C181  1  0.73039000  0.33371000  0.28151000  1
  C  C182  1  0.24772000  0.06338000  0.06078000  1
  C  C183  1  0.24650000  0.08149000  0.41391000  1
  C  C184  1  0.17380000  0.08814000  0.44926000  1
  C  C185  1  0.11360000  0.10655000  0.43105000  1
  C  C186  1  0.12600000  0.11925000  0.37595000  1
  C  C187  1  0.20160000  0.11056000  0.33804000  1
  C  C188  1  0.26080000  0.09150000  0.35870000  1
  C  C189  1  0.06080000  0.14259000  0.35381000  1
  C  C190  1  0.06060000  0.18193000  0.31387000  1
  C  C191  1  0.06470000  0.24088000  0.20552000  1
  C  C192  1  0.06410000  0.28151000  0.16629000  1
  C  C193  1  0.31110000  0.06078000  0.43662000  1
  C  C194  1  0.32799000  0.41391000  0.41851000  1
  C  C195  1  0.26194000  0.44926000  0.41186000  1
  C  C196  1  0.22015000  0.43105000  0.39345000  1
  C  C197  1  0.24525000  0.37595000  0.38075000  1
  C  C198  1  0.31216000  0.33804000  0.38944000  1
  C  C199  1  0.35230000  0.35870000  0.40850000  1
  C  C200  1  0.20339000  0.35381000  0.35741000  1
  C  C201  1  0.24253000  0.31387000  0.31807000  1
  C  C202  1  0.30558000  0.20552000  0.25912000  1
  C  C203  1  0.34561000  0.16629000  0.21849000  1
  C  C204  1  0.37188000  0.43662000  0.43922000  1
  C  C205  1  0.74190000  0.41851000  0.08609000  1
  C  C206  1  0.71120000  0.41186000  0.05074000  1
  C  C207  1  0.65120000  0.39345000  0.06895000  1
  C  C208  1  0.62120000  0.38075000  0.12405000  1
  C  C209  1  0.65020000  0.38944000  0.16196000  1
  C  C210  1  0.71100000  0.40850000  0.14130000  1
  C  C211  1  0.55720000  0.35741000  0.14619000  1
  C  C212  1  0.55640000  0.31807000  0.18613000  1
  C  C213  1  0.51110000  0.25912000  0.29448000  1
  C  C214  1  0.51190000  0.21849000  0.33371000  1
  C  C215  1  0.80850000  0.43922000  0.06338000  1
  H  H216  1  0.24500000  0.92000000  0.98620000  1
  H  H217  1  0.17510000  0.88960000  0.95560000  1
  H  H218  1  0.32850000  0.88270000  0.80090000  1
  H  H219  1  0.39620000  0.91440000  0.83480000  1
  H  H220  1  0.29550000  0.80620000  0.79860000  1
  H  H221  1  0.31760000  0.79050000  0.70050000  1
  H  H222  1  0.38530000  0.72250000  0.63530000  1
  H  H223  1  0.09600000  0.90400000  0.90400000  1
  H  H224  1  0.16500000  0.98620000  0.58000000  1
  H  H225  1  0.06470000  0.95560000  0.61040000  1
  H  H226  1  0.21120000  0.80090000  0.61730000  1
  H  H227  1  0.31060000  0.83480000  0.58560000  1
  H  H228  1  0.10170000  0.79860000  0.69380000  1
  H  H229  1  0.10810000  0.70050000  0.70950000  1
  H  H230  1  0.10780000  0.63530000  0.77750000  1
  H  H231  1  0.00000000  0.90400000  0.59600000  1
  H  H232  1  0.15120000  0.58000000  0.51380000  1
  H  H233  1  0.02030000  0.61040000  0.54440000  1
  H  H234  1  0.01210000  0.61730000  0.69910000  1
  H  H235  1  0.14540000  0.58560000  0.66520000  1
  H  H236  1  0.90030000  0.69380000  0.70140000  1
  H  H237  1  0.80860000  0.70950000  0.79950000  1
  H  H238  1  0.74310000  0.77750000  0.86470000  1
  H  H239  1  0.90400000  0.59600000  0.59600000  1
  H  H240  1  0.73120000  0.51380000  0.92000000  1
  H  H241  1  0.63070000  0.54440000  0.88960000  1
  H  H242  1  0.62940000  0.69910000  0.88270000  1
  H  H243  1  0.73100000  0.66520000  0.91440000  1
  H  H244  1  0.59410000  0.70140000  0.80620000  1
  H  H245  1  0.51810000  0.79950000  0.79050000  1
  H  H246  1  0.52060000  0.86470000  0.72250000  1
  H  H247  1  0.50000000  0.59600000  0.90400000  1
  H  H248  1  0.84880000  0.98620000  0.92000000  1
  H  H249  1  0.97970000  0.95560000  0.88960000  1
  H  H250  1  0.98790000  0.80090000  0.88270000  1
  H  H251  1  0.85460000  0.83480000  0.91440000  1
  H  H252  1  0.09970000  0.79860000  0.80620000  1
  H  H253  1  0.19140000  0.70050000  0.79050000  1
  H  H254  1  0.25690000  0.63530000  0.72250000  1
  H  H255  1  0.83500000  0.92000000  0.51380000  1
  H  H256  1  0.93530000  0.88960000  0.54440000  1
  H  H257  1  0.78880000  0.88270000  0.69910000  1
  H  H258  1  0.68940000  0.91440000  0.66520000  1
  H  H259  1  0.89830000  0.80620000  0.70140000  1
  H  H260  1  0.89190000  0.79050000  0.79950000  1
  H  H261  1  0.89220000  0.72250000  0.86470000  1
  H  H262  1  0.75500000  0.51380000  0.58000000  1
  H  H263  1  0.82490000  0.54440000  0.61040000  1
  H  H264  1  0.67150000  0.69910000  0.61730000  1
  H  H265  1  0.60380000  0.66520000  0.58560000  1
  H  H266  1  0.70450000  0.70140000  0.69380000  1
  H  H267  1  0.68240000  0.79950000  0.70950000  1
  H  H268  1  0.61470000  0.86470000  0.77750000  1
  H  H269  1  0.26880000  0.58000000  0.98620000  1
  H  H270  1  0.36930000  0.61040000  0.95560000  1
  H  H271  1  0.37060000  0.61730000  0.80090000  1
  H  H272  1  0.26900000  0.58560000  0.83480000  1
  H  H273  1  0.40590000  0.69380000  0.79860000  1
  H  H274  1  0.48190000  0.70950000  0.70050000  1
  H  H275  1  0.47940000  0.77750000  0.63530000  1
  H  H276  1  0.75500000  0.08000000  0.01380000  1
  H  H277  1  0.82490000  0.11040000  0.04440000  1
  H  H278  1  0.67150000  0.11730000  0.19910000  1
  H  H279  1  0.60380000  0.08560000  0.16520000  1
  H  H280  1  0.70450000  0.19380000  0.20140000  1
  H  H281  1  0.68240000  0.20950000  0.29950000  1
  H  H282  1  0.61470000  0.27750000  0.36470000  1
  H  H283  1  0.90400000  0.09600000  0.09600000  1
  H  H284  1  0.83500000  0.01380000  0.42000000  1
  H  H285  1  0.93530000  0.04440000  0.38960000  1
  H  H286  1  0.78880000  0.19910000  0.38270000  1
  H  H287  1  0.68940000  0.16520000  0.41440000  1
  H  H288  1  0.89830000  0.20140000  0.30620000  1
  H  H289  1  0.89190000  0.29950000  0.29050000  1
  H  H290  1  0.89220000  0.36470000  0.22250000  1
  H  H291  1  0.00000000  0.09600000  0.40400000  1
  H  H292  1  0.84880000  0.42000000  0.48620000  1
  H  H293  1  0.97970000  0.38960000  0.45560000  1
  H  H294  1  0.98790000  0.38270000  0.30090000  1
  H  H295  1  0.85460000  0.41440000  0.33480000  1
  H  H296  1  0.09970000  0.30620000  0.29860000  1
  H  H297  1  0.19140000  0.29050000  0.20050000  1
  H  H298  1  0.25690000  0.22250000  0.13530000  1
  H  H299  1  0.09600000  0.40400000  0.40400000  1
  H  H300  1  0.26880000  0.48620000  0.08000000  1
  H  H301  1  0.36930000  0.45560000  0.11040000  1
  H  H302  1  0.37060000  0.30090000  0.11730000  1
  H  H303  1  0.26900000  0.33480000  0.08560000  1
  H  H304  1  0.40590000  0.29860000  0.19380000  1
  H  H305  1  0.48190000  0.20050000  0.20950000  1
  H  H306  1  0.47940000  0.13530000  0.27750000  1
  H  H307  1  0.50000000  0.40400000  0.09600000  1
  H  H308  1  0.15120000  0.01380000  0.08000000  1
  H  H309  1  0.02030000  0.04440000  0.11040000  1
  H  H310  1  0.01210000  0.19910000  0.11730000  1
  H  H311  1  0.14540000  0.16520000  0.08560000  1
  H  H312  1  0.90030000  0.20140000  0.19380000  1
  H  H313  1  0.80860000  0.29950000  0.20950000  1
  H  H314  1  0.74310000  0.36470000  0.27750000  1
  H  H315  1  0.16500000  0.08000000  0.48620000  1
  H  H316  1  0.06470000  0.11040000  0.45560000  1
  H  H317  1  0.21120000  0.11730000  0.30090000  1
  H  H318  1  0.31060000  0.08560000  0.33480000  1
  H  H319  1  0.10170000  0.19380000  0.29860000  1
  H  H320  1  0.10810000  0.20950000  0.20050000  1
  H  H321  1  0.10780000  0.27750000  0.13530000  1
  H  H322  1  0.24500000  0.48620000  0.42000000  1
  H  H323  1  0.17510000  0.45560000  0.38960000  1
  H  H324  1  0.32850000  0.30090000  0.38270000  1
  H  H325  1  0.39620000  0.33480000  0.41440000  1
  H  H326  1  0.29550000  0.29860000  0.30620000  1
  H  H327  1  0.31760000  0.20050000  0.29050000  1
  H  H328  1  0.38530000  0.13530000  0.22250000  1
  H  H329  1  0.73120000  0.42000000  0.01380000  1
  H  H330  1  0.63070000  0.38960000  0.04440000  1
  H  H331  1  0.62940000  0.38270000  0.19910000  1
  H  H332  1  0.73100000  0.41440000  0.16520000  1
  H  H333  1  0.59410000  0.30620000  0.20140000  1
  H  H334  1  0.51810000  0.29050000  0.29950000  1
  H  H335  1  0.52060000  0.22250000  0.36470000  1
  O  O336  1  0.35632000  0.93641000  0.98653000  1
  O  O337  1  0.42409000  0.95384000  0.89940000  1
  O  O338  1  0.42217000  0.63782000  0.58646000  1
  O  O339  1  0.50147000  0.92734000  0.97172000  1
  O  O340  1  0.40200000  0.02250000  0.97750000  1
  O  O341  1  0.49900000  0.93640000  0.06360000  1
  O  O342  1  0.29273000  0.98653000  0.56359000  1
  O  O343  1  0.37793000  0.89940000  0.54616000  1
  O  O344  1  0.05999000  0.58646000  0.86218000  1
  O  O345  1  0.42881000  0.97172000  0.57266000  1
  O  O346  1  0.42450000  0.97750000  0.47750000  1
  O  O347  1  0.43540000  0.06360000  0.56360000  1
  O  O348  1  0.27926000  0.56359000  0.51347000  1
  O  O349  1  0.27733000  0.54616000  0.60060000  1
  O  O350  1  0.64645000  0.86218000  0.91354000  1
  O  O351  1  0.40053000  0.57266000  0.52828000  1
  O  O352  1  0.40200000  0.47750000  0.52250000  1
  O  O353  1  0.49900000  0.56360000  0.43640000  1
  O  O354  1  0.84285000  0.51347000  0.93641000  1
  O  O355  1  0.82349000  0.60060000  0.95384000  1
  O  O356  1  0.50863000  0.91354000  0.63782000  1
  O  O357  1  0.97319000  0.52828000  0.92734000  1
  O  O358  1  0.87950000  0.52250000  0.02250000  1
  O  O359  1  0.06260000  0.43640000  0.93640000  1
  O  O360  1  0.72074000  0.98653000  0.93641000  1
  O  O361  1  0.72267000  0.89940000  0.95384000  1
  O  O362  1  0.35355000  0.58646000  0.63782000  1
  O  O363  1  0.59947000  0.97172000  0.92734000  1
  O  O364  1  0.59800000  0.97750000  0.02250000  1
  O  O365  1  0.50100000  0.06360000  0.93640000  1
  O  O366  1  0.70727000  0.93641000  0.51347000  1
  O  O367  1  0.62207000  0.95384000  0.60060000  1
  O  O368  1  0.94001000  0.63782000  0.91354000  1
  O  O369  1  0.57119000  0.92734000  0.52828000  1
  O  O370  1  0.57550000  0.02250000  0.52250000  1
  O  O371  1  0.56460000  0.93640000  0.43640000  1
  O  O372  1  0.64368000  0.51347000  0.56359000  1
  O  O373  1  0.57591000  0.60060000  0.54616000  1
  O  O374  1  0.57783000  0.91354000  0.86218000  1
  O  O375  1  0.49853000  0.52828000  0.57266000  1
  O  O376  1  0.59800000  0.52250000  0.47750000  1
  O  O377  1  0.50100000  0.43640000  0.56360000  1
  O  O378  1  0.15715000  0.56359000  0.98653000  1
  O  O379  1  0.17651000  0.54616000  0.89940000  1
  O  O380  1  0.49137000  0.86218000  0.58646000  1
  O  O381  1  0.02681000  0.57266000  0.97172000  1
  O  O382  1  0.12050000  0.47750000  0.97750000  1
  O  O383  1  0.93740000  0.56360000  0.06360000  1
  O  O384  1  0.64368000  0.06359000  0.01347000  1
  O  O385  1  0.57591000  0.04616000  0.10060000  1
  O  O386  1  0.57783000  0.36218000  0.41354000  1
  O  O387  1  0.49853000  0.07266000  0.02828000  1
  O  O388  1  0.70727000  0.01347000  0.43641000  1
  O  O389  1  0.62207000  0.10060000  0.45384000  1
  O  O390  1  0.94001000  0.41354000  0.13782000  1
  O  O391  1  0.57119000  0.02828000  0.42734000  1
  O  O392  1  0.72074000  0.43641000  0.48653000  1
  O  O393  1  0.72267000  0.45384000  0.39940000  1
  O  O394  1  0.35355000  0.13782000  0.08646000  1
  O  O395  1  0.59947000  0.42734000  0.47172000  1
  O  O396  1  0.15715000  0.48653000  0.06359000  1
  O  O397  1  0.17651000  0.39940000  0.04616000  1
  O  O398  1  0.49137000  0.08646000  0.36218000  1
  O  O399  1  0.02681000  0.47172000  0.07266000  1
  O  O400  1  0.27926000  0.01347000  0.06359000  1
  O  O401  1  0.27733000  0.10060000  0.04616000  1
  O  O402  1  0.64645000  0.41354000  0.36218000  1
  O  O403  1  0.40053000  0.02828000  0.07266000  1
  O  O404  1  0.29273000  0.06359000  0.48653000  1
  O  O405  1  0.37793000  0.04616000  0.39940000  1
  O  O406  1  0.05999000  0.36218000  0.08646000  1
  O  O407  1  0.42881000  0.07266000  0.47172000  1
  O  O408  1  0.35632000  0.48653000  0.43641000  1
  O  O409  1  0.42409000  0.39940000  0.45384000  1
  O  O410  1  0.42217000  0.08646000  0.13782000  1
  O  O411  1  0.50147000  0.47172000  0.42734000  1
  O  O412  1  0.84285000  0.43641000  0.01347000  1
  O  O413  1  0.82349000  0.45384000  0.10060000  1
  O  O414  1  0.50863000  0.13782000  0.41354000  1
  O  O415  1  0.97319000  0.42734000  0.02828000  1
  Zr  Zr416  1  0.50144000  0.99068000  0.90718000  1
  Zr  Zr417  1  0.39942000  0.95947000  0.04053000  1
  Zr  Zr418  1  0.49212000  0.90718000  0.50932000  1
  Zr  Zr419  1  0.35889000  0.04053000  0.54053000  1
  Zr  Zr420  1  0.39930000  0.50932000  0.59282000  1
  Zr  Zr421  1  0.39942000  0.54053000  0.45947000  1
  Zr  Zr422  1  0.90862000  0.59282000  0.99068000  1
  Zr  Zr423  1  0.93995000  0.45947000  0.95947000  1
  Zr  Zr424  1  0.60070000  0.90718000  0.99068000  1
  Zr  Zr425  1  0.60058000  0.04053000  0.95947000  1
  Zr  Zr426  1  0.50788000  0.99068000  0.59282000  1
  Zr  Zr427  1  0.64111000  0.95947000  0.45947000  1
  Zr  Zr428  1  0.49856000  0.59282000  0.50932000  1
  Zr  Zr429  1  0.60058000  0.45947000  0.54053000  1
  Zr  Zr430  1  0.09138000  0.50932000  0.90718000  1
  Zr  Zr431  1  0.06005000  0.54053000  0.04053000  1
  Zr  Zr432  1  0.49856000  0.00932000  0.09282000  1
  Zr  Zr433  1  0.50788000  0.09282000  0.49068000  1
  Zr  Zr434  1  0.60070000  0.49068000  0.40718000  1
  Zr  Zr435  1  0.09138000  0.40718000  0.00932000  1
  Zr  Zr436  1  0.39930000  0.09282000  0.00932000  1
  Zr  Zr437  1  0.49212000  0.00932000  0.40718000  1
  Zr  Zr438  1  0.50144000  0.40718000  0.49068000  1
  Zr  Zr439  1  0.90862000  0.49068000  0.09282000  1
