# generated using pymatgen
data_Zr3H40(C21O4)4
_symmetry_space_group_name_H-M   'P 1'
_cell_length_a   23.14388779
_cell_length_b   23.14388779
_cell_length_c   23.14388779
_cell_angle_alpha   60.00000000
_cell_angle_beta   60.00000000
_cell_angle_gamma   60.00000000
_symmetry_Int_Tables_number   1
_chemical_formula_structural   Zr3H40(C21O4)4
_chemical_formula_sum   'Zr6 H80 C168 O32'
_cell_volume   8765.84823405
_cell_formula_units_Z   2
loop_
 _symmetry_equiv_pos_site_id
 _symmetry_equiv_pos_as_xyz
  1  'x, y, z'
loop_
 _atom_site_type_symbol
 _atom_site_label
 _atom_site_symmetry_multiplicity
 _atom_site_fract_x
 _atom_site_fract_y
 _atom_site_fract_z
 _atom_site_occupancy
  C  C0  1  0.55260000  0.44740000  0.21520000  1
  C  C1  1  0.55230000  0.44770000  0.15470000  1
  C  C2  1  0.50000000  0.50000000  0.30768000  1
  C  C3  1  0.50000000  0.50000000  0.24380000  1
  C  C4  1  0.50000000  0.50000000  0.12600000  1
  C  C5  1  0.50000000  0.50000000  0.05800000  1
  C  C6  1  0.53800000  0.53800000  0.99234000  1
  C  C7  1  0.57390000  0.57390000  0.98970000  1
  C  C8  1  0.60230000  0.60230000  0.99090000  1
  C  C9  1  0.78480000  0.44740000  0.21520000  1
  C  C10  1  0.84530000  0.44770000  0.15470000  1
  C  C11  1  0.69232000  0.50000000  0.30768000  1
  C  C12  1  0.75620000  0.50000000  0.24380000  1
  C  C13  1  0.87400000  0.50000000  0.12600000  1
  C  C14  1  0.94200000  0.50000000  0.05800000  1
  C  C15  1  0.00766000  0.46200000  0.06834000  1
  C  C16  1  0.01030000  0.42610000  0.13750000  1
  C  C17  1  0.00910000  0.39770000  0.19550000  1
  C  C18  1  0.78480000  0.21520000  0.44740000  1
  C  C19  1  0.84530000  0.15470000  0.44770000  1
  C  C20  1  0.69232000  0.30768000  0.50000000  1
  C  C21  1  0.75620000  0.24380000  0.50000000  1
  C  C22  1  0.87400000  0.12600000  0.50000000  1
  C  C23  1  0.94200000  0.05800000  0.50000000  1
  C  C24  1  0.93166000  0.99234000  0.53800000  1
  C  C25  1  0.86250000  0.98970000  0.57390000  1
  C  C26  1  0.80450000  0.99090000  0.60230000  1
  C  C27  1  0.55260000  0.21520000  0.44740000  1
  C  C28  1  0.55230000  0.15470000  0.44770000  1
  C  C29  1  0.50000000  0.30768000  0.50000000  1
  C  C30  1  0.50000000  0.24380000  0.50000000  1
  C  C31  1  0.50000000  0.12600000  0.50000000  1
  C  C32  1  0.50000000  0.05800000  0.50000000  1
  C  C33  1  0.46200000  0.06834000  0.46200000  1
  C  C34  1  0.42610000  0.13750000  0.42610000  1
  C  C35  1  0.39770000  0.19550000  0.39770000  1
  C  C36  1  0.44740000  0.55260000  0.78480000  1
  C  C37  1  0.44770000  0.55230000  0.84530000  1
  C  C38  1  0.50000000  0.50000000  0.69232000  1
  C  C39  1  0.50000000  0.50000000  0.75620000  1
  C  C40  1  0.50000000  0.50000000  0.87400000  1
  C  C41  1  0.50000000  0.50000000  0.94200000  1
  C  C42  1  0.53800000  0.53800000  0.93166000  1
  C  C43  1  0.57390000  0.57390000  0.86250000  1
  C  C44  1  0.60230000  0.60230000  0.80450000  1
  C  C45  1  0.21520000  0.55260000  0.78480000  1
  C  C46  1  0.15470000  0.55230000  0.84530000  1
  C  C47  1  0.30768000  0.50000000  0.69232000  1
  C  C48  1  0.24380000  0.50000000  0.75620000  1
  C  C49  1  0.12600000  0.50000000  0.87400000  1
  C  C50  1  0.05800000  0.50000000  0.94200000  1
  C  C51  1  0.06834000  0.46200000  0.00766000  1
  C  C52  1  0.13750000  0.42610000  0.01030000  1
  C  C53  1  0.19550000  0.39770000  0.00910000  1
  C  C54  1  0.21520000  0.78480000  0.55260000  1
  C  C55  1  0.15470000  0.84530000  0.55230000  1
  C  C56  1  0.30768000  0.69232000  0.50000000  1
  C  C57  1  0.24380000  0.75620000  0.50000000  1
  C  C58  1  0.12600000  0.87400000  0.50000000  1
  C  C59  1  0.05800000  0.94200000  0.50000000  1
  C  C60  1  0.99234000  0.93166000  0.53800000  1
  C  C61  1  0.98970000  0.86250000  0.57390000  1
  C  C62  1  0.99090000  0.80450000  0.60230000  1
  C  C63  1  0.44740000  0.78480000  0.55260000  1
  C  C64  1  0.44770000  0.84530000  0.55230000  1
  C  C65  1  0.50000000  0.69232000  0.50000000  1
  C  C66  1  0.50000000  0.75620000  0.50000000  1
  C  C67  1  0.50000000  0.87400000  0.50000000  1
  C  C68  1  0.50000000  0.94200000  0.50000000  1
  C  C69  1  0.46200000  0.00766000  0.46200000  1
  C  C70  1  0.42610000  0.01030000  0.42610000  1
  C  C71  1  0.39770000  0.00910000  0.39770000  1
  C  C72  1  0.44740000  0.21520000  0.55260000  1
  C  C73  1  0.44770000  0.15470000  0.55230000  1
  C  C74  1  0.53800000  0.99234000  0.53800000  1
  C  C75  1  0.57390000  0.98970000  0.57390000  1
  C  C76  1  0.60230000  0.99090000  0.60230000  1
  C  C77  1  0.44740000  0.55260000  0.21520000  1
  C  C78  1  0.44770000  0.55230000  0.15470000  1
  C  C79  1  0.46200000  0.46200000  0.06834000  1
  C  C80  1  0.42610000  0.42610000  0.13750000  1
  C  C81  1  0.39770000  0.39770000  0.19550000  1
  C  C82  1  0.78480000  0.55260000  0.21520000  1
  C  C83  1  0.84530000  0.55230000  0.15470000  1
  C  C84  1  0.93166000  0.53800000  0.99234000  1
  C  C85  1  0.86250000  0.57390000  0.98970000  1
  C  C86  1  0.80450000  0.60230000  0.99090000  1
  C  C87  1  0.78480000  0.21520000  0.55260000  1
  C  C88  1  0.84530000  0.15470000  0.55230000  1
  C  C89  1  0.00766000  0.06834000  0.46200000  1
  C  C90  1  0.01030000  0.13750000  0.42610000  1
  C  C91  1  0.00910000  0.19550000  0.39770000  1
  C  C92  1  0.21520000  0.44740000  0.78480000  1
  C  C93  1  0.15470000  0.44770000  0.84530000  1
  C  C94  1  0.99234000  0.53800000  0.93166000  1
  C  C95  1  0.98970000  0.57390000  0.86250000  1
  C  C96  1  0.99090000  0.60230000  0.80450000  1
  C  C97  1  0.21520000  0.78480000  0.44740000  1
  C  C98  1  0.15470000  0.84530000  0.44770000  1
  C  C99  1  0.06834000  0.00766000  0.46200000  1
  C  C100  1  0.13750000  0.01030000  0.42610000  1
  C  C101  1  0.19550000  0.00910000  0.39770000  1
  C  C102  1  0.55260000  0.78480000  0.44740000  1
  C  C103  1  0.55230000  0.84530000  0.44770000  1
  C  C104  1  0.53800000  0.93166000  0.53800000  1
  C  C105  1  0.57390000  0.86250000  0.57390000  1
  C  C106  1  0.60230000  0.80450000  0.60230000  1
  C  C107  1  0.55260000  0.44740000  0.78480000  1
  C  C108  1  0.55230000  0.44770000  0.84530000  1
  C  C109  1  0.46200000  0.46200000  0.00766000  1
  C  C110  1  0.42610000  0.42610000  0.01030000  1
  C  C111  1  0.39770000  0.39770000  0.00910000  1
  C  C112  1  0.21520000  0.55260000  0.44740000  1
  C  C113  1  0.15470000  0.55230000  0.44770000  1
  C  C114  1  0.30768000  0.50000000  0.50000000  1
  C  C115  1  0.24380000  0.50000000  0.50000000  1
  C  C116  1  0.12600000  0.50000000  0.50000000  1
  C  C117  1  0.05800000  0.50000000  0.50000000  1
  C  C118  1  0.99234000  0.53800000  0.53800000  1
  C  C119  1  0.98970000  0.57390000  0.57390000  1
  C  C120  1  0.99090000  0.60230000  0.60230000  1
  C  C121  1  0.55260000  0.21520000  0.78480000  1
  C  C122  1  0.55230000  0.15470000  0.84530000  1
  C  C123  1  0.50000000  0.30768000  0.69232000  1
  C  C124  1  0.50000000  0.24380000  0.75620000  1
  C  C125  1  0.50000000  0.12600000  0.87400000  1
  C  C126  1  0.50000000  0.05800000  0.94200000  1
  C  C127  1  0.53800000  0.99234000  0.93166000  1
  C  C128  1  0.57390000  0.98970000  0.86250000  1
  C  C129  1  0.60230000  0.99090000  0.80450000  1
  C  C130  1  0.21520000  0.44740000  0.55260000  1
  C  C131  1  0.15470000  0.44770000  0.55230000  1
  C  C132  1  0.06834000  0.46200000  0.46200000  1
  C  C133  1  0.13750000  0.42610000  0.42610000  1
  C  C134  1  0.19550000  0.39770000  0.39770000  1
  C  C135  1  0.44740000  0.78480000  0.21520000  1
  C  C136  1  0.44770000  0.84530000  0.15470000  1
  C  C137  1  0.50000000  0.69232000  0.30768000  1
  C  C138  1  0.50000000  0.75620000  0.24380000  1
  C  C139  1  0.50000000  0.87400000  0.12600000  1
  C  C140  1  0.50000000  0.94200000  0.05800000  1
  C  C141  1  0.53800000  0.93166000  0.99234000  1
  C  C142  1  0.57390000  0.86250000  0.98970000  1
  C  C143  1  0.60230000  0.80450000  0.99090000  1
  C  C144  1  0.78480000  0.55260000  0.44740000  1
  C  C145  1  0.84530000  0.55230000  0.44770000  1
  C  C146  1  0.69232000  0.50000000  0.50000000  1
  C  C147  1  0.75620000  0.50000000  0.50000000  1
  C  C148  1  0.87400000  0.50000000  0.50000000  1
  C  C149  1  0.94200000  0.50000000  0.50000000  1
  C  C150  1  0.00766000  0.46200000  0.46200000  1
  C  C151  1  0.01030000  0.42610000  0.42610000  1
  C  C152  1  0.00910000  0.39770000  0.39770000  1
  C  C153  1  0.78480000  0.44740000  0.55260000  1
  C  C154  1  0.84530000  0.44770000  0.55230000  1
  C  C155  1  0.93166000  0.53800000  0.53800000  1
  C  C156  1  0.86250000  0.57390000  0.57390000  1
  C  C157  1  0.80450000  0.60230000  0.60230000  1
  C  C158  1  0.44740000  0.21520000  0.78480000  1
  C  C159  1  0.44770000  0.15470000  0.84530000  1
  C  C160  1  0.46200000  0.06834000  0.00766000  1
  C  C161  1  0.42610000  0.13750000  0.01030000  1
  C  C162  1  0.39770000  0.19550000  0.00910000  1
  C  C163  1  0.55260000  0.78480000  0.21520000  1
  C  C164  1  0.55230000  0.84530000  0.15470000  1
  C  C165  1  0.46200000  0.00766000  0.06834000  1
  C  C166  1  0.42610000  0.01030000  0.13750000  1
  C  C167  1  0.39770000  0.00910000  0.19550000  1
  H  H168  1  0.65519000  0.44827000  0.44827000  1
  H  H169  1  0.58800000  0.41200000  0.23600000  1
  H  H170  1  0.58770000  0.41230000  0.13370000  1
  H  H171  1  0.62570000  0.62570000  0.99170000  1
  H  H172  1  0.55173000  0.34481000  0.55173000  1
  H  H173  1  0.76400000  0.41200000  0.23600000  1
  H  H174  1  0.86630000  0.41230000  0.13370000  1
  H  H175  1  0.00830000  0.37430000  0.24310000  1
  H  H176  1  0.44827000  0.44827000  0.44827000  1
  H  H177  1  0.76400000  0.23600000  0.41200000  1
  H  H178  1  0.86630000  0.13370000  0.41230000  1
  H  H179  1  0.75690000  0.99170000  0.62570000  1
  H  H180  1  0.55173000  0.55173000  0.34481000  1
  H  H181  1  0.58800000  0.23600000  0.41200000  1
  H  H182  1  0.58770000  0.13370000  0.41230000  1
  H  H183  1  0.37430000  0.24310000  0.37430000  1
  H  H184  1  0.44827000  0.65519000  0.44827000  1
  H  H185  1  0.41200000  0.58800000  0.76400000  1
  H  H186  1  0.41230000  0.58770000  0.86630000  1
  H  H187  1  0.62570000  0.62570000  0.75690000  1
  H  H188  1  0.55173000  0.55173000  0.55173000  1
  H  H189  1  0.23600000  0.58800000  0.76400000  1
  H  H190  1  0.13370000  0.58770000  0.86630000  1
  H  H191  1  0.24310000  0.37430000  0.00830000  1
  H  H192  1  0.44827000  0.44827000  0.65519000  1
  H  H193  1  0.23600000  0.76400000  0.58800000  1
  H  H194  1  0.13370000  0.86630000  0.58770000  1
  H  H195  1  0.99170000  0.75690000  0.62570000  1
  H  H196  1  0.34481000  0.55173000  0.55173000  1
  H  H197  1  0.41200000  0.76400000  0.58800000  1
  H  H198  1  0.41230000  0.86630000  0.58770000  1
  H  H199  1  0.37430000  0.00830000  0.37430000  1
  H  H200  1  0.41200000  0.23600000  0.58800000  1
  H  H201  1  0.41230000  0.13370000  0.58770000  1
  H  H202  1  0.62570000  0.99170000  0.62570000  1
  H  H203  1  0.41200000  0.58800000  0.23600000  1
  H  H204  1  0.41230000  0.58770000  0.13370000  1
  H  H205  1  0.37430000  0.37430000  0.24310000  1
  H  H206  1  0.76400000  0.58800000  0.23600000  1
  H  H207  1  0.86630000  0.58770000  0.13370000  1
  H  H208  1  0.75690000  0.62570000  0.99170000  1
  H  H209  1  0.76400000  0.23600000  0.58800000  1
  H  H210  1  0.86630000  0.13370000  0.58770000  1
  H  H211  1  0.00830000  0.24310000  0.37430000  1
  H  H212  1  0.23600000  0.41200000  0.76400000  1
  H  H213  1  0.13370000  0.41230000  0.86630000  1
  H  H214  1  0.99170000  0.62570000  0.75690000  1
  H  H215  1  0.23600000  0.76400000  0.41200000  1
  H  H216  1  0.13370000  0.86630000  0.41230000  1
  H  H217  1  0.24310000  0.00830000  0.37430000  1
  H  H218  1  0.58800000  0.76400000  0.41200000  1
  H  H219  1  0.58770000  0.86630000  0.41230000  1
  H  H220  1  0.62570000  0.75690000  0.62570000  1
  H  H221  1  0.58800000  0.41200000  0.76400000  1
  H  H222  1  0.58770000  0.41230000  0.86630000  1
  H  H223  1  0.37430000  0.37430000  0.00830000  1
  H  H224  1  0.23600000  0.58800000  0.41200000  1
  H  H225  1  0.13370000  0.58770000  0.41230000  1
  H  H226  1  0.99170000  0.62570000  0.62570000  1
  H  H227  1  0.58800000  0.23600000  0.76400000  1
  H  H228  1  0.58770000  0.13370000  0.86630000  1
  H  H229  1  0.62570000  0.99170000  0.75690000  1
  H  H230  1  0.23600000  0.41200000  0.58800000  1
  H  H231  1  0.13370000  0.41230000  0.58770000  1
  H  H232  1  0.24310000  0.37430000  0.37430000  1
  H  H233  1  0.41200000  0.76400000  0.23600000  1
  H  H234  1  0.41230000  0.86630000  0.13370000  1
  H  H235  1  0.62570000  0.75690000  0.99170000  1
  H  H236  1  0.76400000  0.58800000  0.41200000  1
  H  H237  1  0.86630000  0.58770000  0.41230000  1
  H  H238  1  0.00830000  0.37430000  0.37430000  1
  H  H239  1  0.76400000  0.41200000  0.58800000  1
  H  H240  1  0.86630000  0.41230000  0.58770000  1
  H  H241  1  0.75690000  0.62570000  0.62570000  1
  H  H242  1  0.41200000  0.23600000  0.76400000  1
  H  H243  1  0.41230000  0.13370000  0.86630000  1
  H  H244  1  0.37430000  0.24310000  0.00830000  1
  H  H245  1  0.58800000  0.76400000  0.23600000  1
  H  H246  1  0.58770000  0.86630000  0.13370000  1
  H  H247  1  0.37430000  0.00830000  0.24310000  1
  O  O248  1  0.60986000  0.46338000  0.46338000  1
  O  O249  1  0.55089000  0.44911000  0.33221000  1
  O  O250  1  0.53662000  0.39014000  0.53662000  1
  O  O251  1  0.66779000  0.44911000  0.33221000  1
  O  O252  1  0.46338000  0.46338000  0.46338000  1
  O  O253  1  0.66779000  0.33221000  0.44911000  1
  O  O254  1  0.53662000  0.53662000  0.39014000  1
  O  O255  1  0.55089000  0.33221000  0.44911000  1
  O  O256  1  0.46338000  0.60986000  0.46338000  1
  O  O257  1  0.44911000  0.55089000  0.66779000  1
  O  O258  1  0.53662000  0.53662000  0.53662000  1
  O  O259  1  0.33221000  0.55089000  0.66779000  1
  O  O260  1  0.46338000  0.46338000  0.60986000  1
  O  O261  1  0.33221000  0.66779000  0.55089000  1
  O  O262  1  0.39014000  0.53662000  0.53662000  1
  O  O263  1  0.44911000  0.66779000  0.55089000  1
  O  O264  1  0.44911000  0.33221000  0.55089000  1
  O  O265  1  0.44911000  0.55089000  0.33221000  1
  O  O266  1  0.66779000  0.55089000  0.33221000  1
  O  O267  1  0.66779000  0.33221000  0.55089000  1
  O  O268  1  0.33221000  0.44911000  0.66779000  1
  O  O269  1  0.33221000  0.66779000  0.44911000  1
  O  O270  1  0.55089000  0.66779000  0.44911000  1
  O  O271  1  0.55089000  0.44911000  0.66779000  1
  O  O272  1  0.33221000  0.55089000  0.44911000  1
  O  O273  1  0.55089000  0.33221000  0.66779000  1
  O  O274  1  0.33221000  0.44911000  0.55089000  1
  O  O275  1  0.44911000  0.66779000  0.33221000  1
  O  O276  1  0.66779000  0.55089000  0.44911000  1
  O  O277  1  0.66779000  0.44911000  0.55089000  1
  O  O278  1  0.44911000  0.33221000  0.66779000  1
  O  O279  1  0.55089000  0.66779000  0.33221000  1
  Zr  Zr280  1  0.57549000  0.42451000  0.42451000  1
  Zr  Zr281  1  0.42451000  0.57549000  0.57549000  1
  Zr  Zr282  1  0.42451000  0.42451000  0.57549000  1
  Zr  Zr283  1  0.42451000  0.57549000  0.42451000  1
  Zr  Zr284  1  0.57549000  0.57549000  0.42451000  1
  Zr  Zr285  1  0.57549000  0.42451000  0.57549000  1
