# generated using pymatgen
data_Zr3Co3H18C38N7(Cl3O8)2
_symmetry_space_group_name_H-M   'P 1'
_cell_length_a   26.07290000
_cell_length_b   26.07290000
_cell_length_c   26.07290000
_cell_angle_alpha   90.00000000
_cell_angle_beta   90.00000000
_cell_angle_gamma   90.00000000
_symmetry_Int_Tables_number   1
_chemical_formula_structural   Zr3Co3H18C38N7(Cl3O8)2
_chemical_formula_sum   'Zr24 Co24 H144 C304 N56 Cl48 O128'
_cell_volume   17724.25611140
_cell_formula_units_Z   8
loop_
 _symmetry_equiv_pos_site_id
 _symmetry_equiv_pos_as_xyz
  1  'x, y, z'
loop_
 _atom_site_type_symbol
 _atom_site_label
 _atom_site_symmetry_multiplicity
 _atom_site_fract_x
 _atom_site_fract_y
 _atom_site_fract_z
 _atom_site_occupancy
  Zr  Zr0  1  0.98470000  0.40759000  0.98687000  1
  Zr  Zr1  1  0.51530000  0.59241000  0.48687000  1
  Zr  Zr2  1  0.48470000  0.09241000  0.01313000  1
  Zr  Zr3  1  0.01530000  0.90759000  0.51313000  1
  Zr  Zr4  1  0.98687000  0.98470000  0.40759000  1
  Zr  Zr5  1  0.51313000  0.01530000  0.90759000  1
  Zr  Zr6  1  0.48687000  0.51530000  0.59241000  1
  Zr  Zr7  1  0.01313000  0.48470000  0.09241000  1
  Zr  Zr8  1  0.40759000  0.98687000  0.98470000  1
  Zr  Zr9  1  0.90759000  0.51313000  0.01530000  1
  Zr  Zr10  1  0.59241000  0.48687000  0.51530000  1
  Zr  Zr11  1  0.09241000  0.01313000  0.48470000  1
  Zr  Zr12  1  0.01530000  0.59241000  0.01313000  1
  Zr  Zr13  1  0.48470000  0.40759000  0.51313000  1
  Zr  Zr14  1  0.51530000  0.90759000  0.98687000  1
  Zr  Zr15  1  0.98470000  0.09241000  0.48687000  1
  Zr  Zr16  1  0.01313000  0.01530000  0.59241000  1
  Zr  Zr17  1  0.48687000  0.98470000  0.09241000  1
  Zr  Zr18  1  0.51313000  0.48470000  0.40759000  1
  Zr  Zr19  1  0.98687000  0.51530000  0.90759000  1
  Zr  Zr20  1  0.59241000  0.01313000  0.01530000  1
  Zr  Zr21  1  0.09241000  0.48687000  0.98470000  1
  Zr  Zr22  1  0.40759000  0.51313000  0.48470000  1
  Zr  Zr23  1  0.90759000  0.98687000  0.51530000  1
  Co  Co24  1  0.00250000  0.29575000  0.29950000  1
  Co  Co25  1  0.49750000  0.70425000  0.79950000  1
  Co  Co26  1  0.50250000  0.20425000  0.70050000  1
  Co  Co27  1  0.99750000  0.79575000  0.20050000  1
  Co  Co28  1  0.29950000  0.00250000  0.29575000  1
  Co  Co29  1  0.20050000  0.99750000  0.79575000  1
  Co  Co30  1  0.79950000  0.49750000  0.70425000  1
  Co  Co31  1  0.70050000  0.50250000  0.20425000  1
  Co  Co32  1  0.29575000  0.29950000  0.00250000  1
  Co  Co33  1  0.79575000  0.20050000  0.99750000  1
  Co  Co34  1  0.70425000  0.79950000  0.49750000  1
  Co  Co35  1  0.20425000  0.70050000  0.50250000  1
  Co  Co36  1  0.99750000  0.70425000  0.70050000  1
  Co  Co37  1  0.50250000  0.29575000  0.20050000  1
  Co  Co38  1  0.49750000  0.79575000  0.29950000  1
  Co  Co39  1  0.00250000  0.20425000  0.79950000  1
  Co  Co40  1  0.70050000  0.99750000  0.70425000  1
  Co  Co41  1  0.79950000  0.00250000  0.20425000  1
  Co  Co42  1  0.20050000  0.50250000  0.29575000  1
  Co  Co43  1  0.29950000  0.49750000  0.79575000  1
  Co  Co44  1  0.70425000  0.70050000  0.99750000  1
  Co  Co45  1  0.20425000  0.79950000  0.00250000  1
  Co  Co46  1  0.29575000  0.20050000  0.50250000  1
  Co  Co47  1  0.79575000  0.29950000  0.49750000  1
  H  H48  1  0.92448000  0.76869000  0.56430000  1
  H  H49  1  0.94194000  0.19383000  0.13984000  1
  H  H50  1  0.95045000  0.26949000  0.07637000  1
  H  H51  1  0.92651000  0.14492000  0.19682000  1
  H  H52  1  0.99493000  0.19647000  0.36890000  1
  H  H53  1  0.02485000  0.35800000  0.19817000  1
  H  H54  1  0.57552000  0.23131000  0.06430000  1
  H  H55  1  0.55806000  0.80617000  0.63984000  1
  H  H56  1  0.54955000  0.73051000  0.57637000  1
  H  H57  1  0.57349000  0.85508000  0.69682000  1
  H  H58  1  0.50507000  0.80353000  0.86890000  1
  H  H59  1  0.47515000  0.64200000  0.69817000  1
  H  H60  1  0.42448000  0.73131000  0.43570000  1
  H  H61  1  0.44194000  0.30617000  0.86016000  1
  H  H62  1  0.45045000  0.23051000  0.92363000  1
  H  H63  1  0.42651000  0.35508000  0.80318000  1
  H  H64  1  0.49493000  0.30353000  0.63110000  1
  H  H65  1  0.52485000  0.14200000  0.80183000  1
  H  H66  1  0.07552000  0.26869000  0.93570000  1
  H  H67  1  0.05806000  0.69383000  0.36016000  1
  H  H68  1  0.04955000  0.76949000  0.42363000  1
  H  H69  1  0.07349000  0.64492000  0.30318000  1
  H  H70  1  0.00507000  0.69647000  0.13110000  1
  H  H71  1  0.97515000  0.85800000  0.30183000  1
  H  H72  1  0.56430000  0.92448000  0.76869000  1
  H  H73  1  0.13984000  0.94194000  0.19383000  1
  H  H74  1  0.07637000  0.95045000  0.26949000  1
  H  H75  1  0.19682000  0.92651000  0.14492000  1
  H  H76  1  0.36890000  0.99493000  0.19647000  1
  H  H77  1  0.19817000  0.02485000  0.35800000  1
  H  H78  1  0.93570000  0.07552000  0.26869000  1
  H  H79  1  0.36016000  0.05806000  0.69383000  1
  H  H80  1  0.42363000  0.04955000  0.76949000  1
  H  H81  1  0.30318000  0.07349000  0.64492000  1
  H  H82  1  0.13110000  0.00507000  0.69647000  1
  H  H83  1  0.30183000  0.97515000  0.85800000  1
  H  H84  1  0.06430000  0.57552000  0.23131000  1
  H  H85  1  0.63984000  0.55806000  0.80617000  1
  H  H86  1  0.57637000  0.54955000  0.73051000  1
  H  H87  1  0.69682000  0.57349000  0.85508000  1
  H  H88  1  0.86890000  0.50507000  0.80353000  1
  H  H89  1  0.69817000  0.47515000  0.64200000  1
  H  H90  1  0.43570000  0.42448000  0.73131000  1
  H  H91  1  0.86016000  0.44194000  0.30617000  1
  H  H92  1  0.92363000  0.45045000  0.23051000  1
  H  H93  1  0.80318000  0.42651000  0.35508000  1
  H  H94  1  0.63110000  0.49493000  0.30353000  1
  H  H95  1  0.80183000  0.52485000  0.14200000  1
  H  H96  1  0.76869000  0.56430000  0.92448000  1
  H  H97  1  0.19383000  0.13984000  0.94194000  1
  H  H98  1  0.26949000  0.07637000  0.95045000  1
  H  H99  1  0.14492000  0.19682000  0.92651000  1
  H  H100  1  0.19647000  0.36890000  0.99493000  1
  H  H101  1  0.35800000  0.19817000  0.02485000  1
  H  H102  1  0.26869000  0.93570000  0.07552000  1
  H  H103  1  0.69383000  0.36016000  0.05806000  1
  H  H104  1  0.76949000  0.42363000  0.04955000  1
  H  H105  1  0.64492000  0.30318000  0.07349000  1
  H  H106  1  0.69647000  0.13110000  0.00507000  1
  H  H107  1  0.85800000  0.30183000  0.97515000  1
  H  H108  1  0.23131000  0.06430000  0.57552000  1
  H  H109  1  0.80617000  0.63984000  0.55806000  1
  H  H110  1  0.73051000  0.57637000  0.54955000  1
  H  H111  1  0.85508000  0.69682000  0.57349000  1
  H  H112  1  0.80353000  0.86890000  0.50507000  1
  H  H113  1  0.64200000  0.69817000  0.47515000  1
  H  H114  1  0.73131000  0.43570000  0.42448000  1
  H  H115  1  0.30617000  0.86016000  0.44194000  1
  H  H116  1  0.23051000  0.92363000  0.45045000  1
  H  H117  1  0.35508000  0.80318000  0.42651000  1
  H  H118  1  0.30353000  0.63110000  0.49493000  1
  H  H119  1  0.14200000  0.80183000  0.52485000  1
  H  H120  1  0.07552000  0.23131000  0.43570000  1
  H  H121  1  0.05806000  0.80617000  0.86016000  1
  H  H122  1  0.04955000  0.73051000  0.92363000  1
  H  H123  1  0.07349000  0.85508000  0.80318000  1
  H  H124  1  0.00507000  0.80353000  0.63110000  1
  H  H125  1  0.97515000  0.64200000  0.80183000  1
  H  H126  1  0.42448000  0.76869000  0.93570000  1
  H  H127  1  0.44194000  0.19383000  0.36016000  1
  H  H128  1  0.45045000  0.26949000  0.42363000  1
  H  H129  1  0.42651000  0.14492000  0.30318000  1
  H  H130  1  0.49493000  0.19647000  0.13110000  1
  H  H131  1  0.52485000  0.35800000  0.30183000  1
  H  H132  1  0.57552000  0.26869000  0.56430000  1
  H  H133  1  0.55806000  0.69383000  0.13984000  1
  H  H134  1  0.54955000  0.76949000  0.07637000  1
  H  H135  1  0.57349000  0.64492000  0.19682000  1
  H  H136  1  0.50507000  0.69647000  0.36890000  1
  H  H137  1  0.47515000  0.85800000  0.19817000  1
  H  H138  1  0.92448000  0.73131000  0.06430000  1
  H  H139  1  0.94194000  0.30617000  0.63984000  1
  H  H140  1  0.95045000  0.23051000  0.57637000  1
  H  H141  1  0.92651000  0.35508000  0.69682000  1
  H  H142  1  0.99493000  0.30353000  0.86890000  1
  H  H143  1  0.02485000  0.14200000  0.69817000  1
  H  H144  1  0.43570000  0.07552000  0.23131000  1
  H  H145  1  0.86016000  0.05806000  0.80617000  1
  H  H146  1  0.92363000  0.04955000  0.73051000  1
  H  H147  1  0.80318000  0.07349000  0.85508000  1
  H  H148  1  0.63110000  0.00507000  0.80353000  1
  H  H149  1  0.80183000  0.97515000  0.64200000  1
  H  H150  1  0.06430000  0.92448000  0.73131000  1
  H  H151  1  0.63984000  0.94194000  0.30617000  1
  H  H152  1  0.57637000  0.95045000  0.23051000  1
  H  H153  1  0.69682000  0.92651000  0.35508000  1
  H  H154  1  0.86890000  0.99493000  0.30353000  1
  H  H155  1  0.69817000  0.02485000  0.14200000  1
  H  H156  1  0.93570000  0.42448000  0.76869000  1
  H  H157  1  0.36016000  0.44194000  0.19383000  1
  H  H158  1  0.42363000  0.45045000  0.26949000  1
  H  H159  1  0.30318000  0.42651000  0.14492000  1
  H  H160  1  0.13110000  0.49493000  0.19647000  1
  H  H161  1  0.30183000  0.52485000  0.35800000  1
  H  H162  1  0.56430000  0.57552000  0.26869000  1
  H  H163  1  0.13984000  0.55806000  0.69383000  1
  H  H164  1  0.07637000  0.54955000  0.76949000  1
  H  H165  1  0.19682000  0.57349000  0.64492000  1
  H  H166  1  0.36890000  0.50507000  0.69647000  1
  H  H167  1  0.19817000  0.47515000  0.85800000  1
  H  H168  1  0.23131000  0.43570000  0.07552000  1
  H  H169  1  0.80617000  0.86016000  0.05806000  1
  H  H170  1  0.73051000  0.92363000  0.04955000  1
  H  H171  1  0.85508000  0.80318000  0.07349000  1
  H  H172  1  0.80353000  0.63110000  0.00507000  1
  H  H173  1  0.64200000  0.80183000  0.97515000  1
  H  H174  1  0.73131000  0.06430000  0.92448000  1
  H  H175  1  0.30617000  0.63984000  0.94194000  1
  H  H176  1  0.23051000  0.57637000  0.95045000  1
  H  H177  1  0.35508000  0.69682000  0.92651000  1
  H  H178  1  0.30353000  0.86890000  0.99493000  1
  H  H179  1  0.14200000  0.69817000  0.02485000  1
  H  H180  1  0.76869000  0.93570000  0.42448000  1
  H  H181  1  0.19383000  0.36016000  0.44194000  1
  H  H182  1  0.26949000  0.42363000  0.45045000  1
  H  H183  1  0.14492000  0.30318000  0.42651000  1
  H  H184  1  0.19647000  0.13110000  0.49493000  1
  H  H185  1  0.35800000  0.30183000  0.52485000  1
  H  H186  1  0.26869000  0.56430000  0.57552000  1
  H  H187  1  0.69383000  0.13984000  0.55806000  1
  H  H188  1  0.76949000  0.07637000  0.54955000  1
  H  H189  1  0.64492000  0.19682000  0.57349000  1
  H  H190  1  0.69647000  0.36890000  0.50507000  1
  H  H191  1  0.85800000  0.19817000  0.47515000  1
  C  C192  1  0.98600000  0.31957000  0.13527000  1
  C  C193  1  0.99375000  0.36352000  0.10039000  1
  C  C194  1  0.96350000  0.13380000  0.32180000  1
  C  C195  1  0.96720000  0.09846000  0.36590000  1
  C  C196  1  0.97310000  0.24160000  0.20330000  1
  C  C197  1  0.96750000  0.20150000  0.24270000  1
  C  C198  1  0.95790000  0.23280000  0.15160000  1
  C  C199  1  0.96360000  0.27320000  0.11790000  1
  C  C200  1  0.00300000  0.32260000  0.18470000  1
  C  C201  1  0.94570000  0.15420000  0.23500000  1
  C  C202  1  0.94720000  0.11730000  0.27450000  1
  C  C203  1  0.98140000  0.18380000  0.32930000  1
  C  C204  1  0.85660000  0.35660000  0.14340000  1
  C  C205  1  0.82490000  0.32490000  0.17510000  1
  C  C206  1  0.51400000  0.68043000  0.63527000  1
  C  C207  1  0.50625000  0.63648000  0.60039000  1
  C  C208  1  0.53650000  0.86620000  0.82180000  1
  C  C209  1  0.53280000  0.90154000  0.86590000  1
  C  C210  1  0.52690000  0.75840000  0.70330000  1
  C  C211  1  0.53250000  0.79850000  0.74270000  1
  C  C212  1  0.54210000  0.76720000  0.65160000  1
  C  C213  1  0.53640000  0.72680000  0.61790000  1
  C  C214  1  0.49700000  0.67740000  0.68470000  1
  C  C215  1  0.55430000  0.84580000  0.73500000  1
  C  C216  1  0.55280000  0.88270000  0.77450000  1
  C  C217  1  0.51860000  0.81620000  0.82930000  1
  C  C218  1  0.64340000  0.64340000  0.64340000  1
  C  C219  1  0.67510000  0.67510000  0.67510000  1
  C  C220  1  0.48600000  0.18043000  0.86473000  1
  C  C221  1  0.49375000  0.13648000  0.89961000  1
  C  C222  1  0.46350000  0.36620000  0.67820000  1
  C  C223  1  0.46720000  0.40154000  0.63410000  1
  C  C224  1  0.47310000  0.25840000  0.79670000  1
  C  C225  1  0.46750000  0.29850000  0.75730000  1
  C  C226  1  0.45790000  0.26720000  0.84840000  1
  C  C227  1  0.46360000  0.22680000  0.88210000  1
  C  C228  1  0.50300000  0.17740000  0.81530000  1
  C  C229  1  0.44570000  0.34580000  0.76500000  1
  C  C230  1  0.44720000  0.38270000  0.72550000  1
  C  C231  1  0.48140000  0.31620000  0.67070000  1
  C  C232  1  0.35660000  0.14340000  0.85660000  1
  C  C233  1  0.32490000  0.17510000  0.82490000  1
  C  C234  1  0.01400000  0.81957000  0.36473000  1
  C  C235  1  0.00625000  0.86352000  0.39961000  1
  C  C236  1  0.03650000  0.63380000  0.17820000  1
  C  C237  1  0.03280000  0.59846000  0.13410000  1
  C  C238  1  0.02690000  0.74160000  0.29670000  1
  C  C239  1  0.03250000  0.70150000  0.25730000  1
  C  C240  1  0.04210000  0.73280000  0.34840000  1
  C  C241  1  0.03640000  0.77320000  0.38210000  1
  C  C242  1  0.99700000  0.82260000  0.31530000  1
  C  C243  1  0.05430000  0.65420000  0.26500000  1
  C  C244  1  0.05280000  0.61730000  0.22550000  1
  C  C245  1  0.01860000  0.68380000  0.17070000  1
  C  C246  1  0.14340000  0.85660000  0.35660000  1
  C  C247  1  0.17510000  0.82490000  0.32490000  1
  C  C248  1  0.13527000  0.98600000  0.31957000  1
  C  C249  1  0.10039000  0.99375000  0.36352000  1
  C  C250  1  0.32180000  0.96350000  0.13380000  1
  C  C251  1  0.36590000  0.96720000  0.09846000  1
  C  C252  1  0.20330000  0.97310000  0.24160000  1
  C  C253  1  0.24270000  0.96750000  0.20150000  1
  C  C254  1  0.15160000  0.95790000  0.23280000  1
  C  C255  1  0.11790000  0.96360000  0.27320000  1
  C  C256  1  0.18470000  0.00300000  0.32260000  1
  C  C257  1  0.23500000  0.94570000  0.15420000  1
  C  C258  1  0.27450000  0.94720000  0.11730000  1
  C  C259  1  0.32930000  0.98140000  0.18380000  1
  C  C260  1  0.36473000  0.01400000  0.81957000  1
  C  C261  1  0.39961000  0.00625000  0.86352000  1
  C  C262  1  0.17820000  0.03650000  0.63380000  1
  C  C263  1  0.13410000  0.03280000  0.59846000  1
  C  C264  1  0.29670000  0.02690000  0.74160000  1
  C  C265  1  0.25730000  0.03250000  0.70150000  1
  C  C266  1  0.34840000  0.04210000  0.73280000  1
  C  C267  1  0.38210000  0.03640000  0.77320000  1
  C  C268  1  0.31530000  0.99700000  0.82260000  1
  C  C269  1  0.26500000  0.05430000  0.65420000  1
  C  C270  1  0.22550000  0.05280000  0.61730000  1
  C  C271  1  0.17070000  0.01860000  0.68380000  1
  C  C272  1  0.63527000  0.51400000  0.68043000  1
  C  C273  1  0.60039000  0.50625000  0.63648000  1
  C  C274  1  0.82180000  0.53650000  0.86620000  1
  C  C275  1  0.86590000  0.53280000  0.90154000  1
  C  C276  1  0.70330000  0.52690000  0.75840000  1
  C  C277  1  0.74270000  0.53250000  0.79850000  1
  C  C278  1  0.65160000  0.54210000  0.76720000  1
  C  C279  1  0.61790000  0.53640000  0.72680000  1
  C  C280  1  0.68470000  0.49700000  0.67740000  1
  C  C281  1  0.73500000  0.55430000  0.84580000  1
  C  C282  1  0.77450000  0.55280000  0.88270000  1
  C  C283  1  0.82930000  0.51860000  0.81620000  1
  C  C284  1  0.86473000  0.48600000  0.18043000  1
  C  C285  1  0.89961000  0.49375000  0.13648000  1
  C  C286  1  0.67820000  0.46350000  0.36620000  1
  C  C287  1  0.63410000  0.46720000  0.40154000  1
  C  C288  1  0.79670000  0.47310000  0.25840000  1
  C  C289  1  0.75730000  0.46750000  0.29850000  1
  C  C290  1  0.84840000  0.45790000  0.26720000  1
  C  C291  1  0.88210000  0.46360000  0.22680000  1
  C  C292  1  0.81530000  0.50300000  0.17740000  1
  C  C293  1  0.76500000  0.44570000  0.34580000  1
  C  C294  1  0.72550000  0.44720000  0.38270000  1
  C  C295  1  0.67070000  0.48140000  0.31620000  1
  C  C296  1  0.31957000  0.13527000  0.98600000  1
  C  C297  1  0.36352000  0.10039000  0.99375000  1
  C  C298  1  0.13380000  0.32180000  0.96350000  1
  C  C299  1  0.09846000  0.36590000  0.96720000  1
  C  C300  1  0.24160000  0.20330000  0.97310000  1
  C  C301  1  0.20150000  0.24270000  0.96750000  1
  C  C302  1  0.23280000  0.15160000  0.95790000  1
  C  C303  1  0.27320000  0.11790000  0.96360000  1
  C  C304  1  0.32260000  0.18470000  0.00300000  1
  C  C305  1  0.15420000  0.23500000  0.94570000  1
  C  C306  1  0.11730000  0.27450000  0.94720000  1
  C  C307  1  0.18380000  0.32930000  0.98140000  1
  C  C308  1  0.81957000  0.36473000  0.01400000  1
  C  C309  1  0.86352000  0.39961000  0.00625000  1
  C  C310  1  0.63380000  0.17820000  0.03650000  1
  C  C311  1  0.59846000  0.13410000  0.03280000  1
  C  C312  1  0.74160000  0.29670000  0.02690000  1
  C  C313  1  0.70150000  0.25730000  0.03250000  1
  C  C314  1  0.73280000  0.34840000  0.04210000  1
  C  C315  1  0.77320000  0.38210000  0.03640000  1
  C  C316  1  0.82260000  0.31530000  0.99700000  1
  C  C317  1  0.65420000  0.26500000  0.05430000  1
  C  C318  1  0.61730000  0.22550000  0.05280000  1
  C  C319  1  0.68380000  0.17070000  0.01860000  1
  C  C320  1  0.68043000  0.63527000  0.51400000  1
  C  C321  1  0.63648000  0.60039000  0.50625000  1
  C  C322  1  0.86620000  0.82180000  0.53650000  1
  C  C323  1  0.90154000  0.86590000  0.53280000  1
  C  C324  1  0.75840000  0.70330000  0.52690000  1
  C  C325  1  0.79850000  0.74270000  0.53250000  1
  C  C326  1  0.76720000  0.65160000  0.54210000  1
  C  C327  1  0.72680000  0.61790000  0.53640000  1
  C  C328  1  0.67740000  0.68470000  0.49700000  1
  C  C329  1  0.84580000  0.73500000  0.55430000  1
  C  C330  1  0.88270000  0.77450000  0.55280000  1
  C  C331  1  0.81620000  0.82930000  0.51860000  1
  C  C332  1  0.18043000  0.86473000  0.48600000  1
  C  C333  1  0.13648000  0.89961000  0.49375000  1
  C  C334  1  0.36620000  0.67820000  0.46350000  1
  C  C335  1  0.40154000  0.63410000  0.46720000  1
  C  C336  1  0.25840000  0.79670000  0.47310000  1
  C  C337  1  0.29850000  0.75730000  0.46750000  1
  C  C338  1  0.26720000  0.84840000  0.45790000  1
  C  C339  1  0.22680000  0.88210000  0.46360000  1
  C  C340  1  0.17740000  0.81530000  0.50300000  1
  C  C341  1  0.34580000  0.76500000  0.44570000  1
  C  C342  1  0.38270000  0.72550000  0.44720000  1
  C  C343  1  0.31620000  0.67070000  0.48140000  1
  C  C344  1  0.01400000  0.68043000  0.86473000  1
  C  C345  1  0.00625000  0.63648000  0.89961000  1
  C  C346  1  0.03650000  0.86620000  0.67820000  1
  C  C347  1  0.03280000  0.90154000  0.63410000  1
  C  C348  1  0.02690000  0.75840000  0.79670000  1
  C  C349  1  0.03250000  0.79850000  0.75730000  1
  C  C350  1  0.04210000  0.76720000  0.84840000  1
  C  C351  1  0.03640000  0.72680000  0.88210000  1
  C  C352  1  0.99700000  0.67740000  0.81530000  1
  C  C353  1  0.05430000  0.84580000  0.76500000  1
  C  C354  1  0.05280000  0.88270000  0.72550000  1
  C  C355  1  0.01860000  0.81620000  0.67070000  1
  C  C356  1  0.14340000  0.64340000  0.85660000  1
  C  C357  1  0.17510000  0.67510000  0.82490000  1
  C  C358  1  0.48600000  0.31957000  0.36473000  1
  C  C359  1  0.49375000  0.36352000  0.39961000  1
  C  C360  1  0.46350000  0.13380000  0.17820000  1
  C  C361  1  0.46720000  0.09846000  0.13410000  1
  C  C362  1  0.47310000  0.24160000  0.29670000  1
  C  C363  1  0.46750000  0.20150000  0.25730000  1
  C  C364  1  0.45790000  0.23280000  0.34840000  1
  C  C365  1  0.46360000  0.27320000  0.38210000  1
  C  C366  1  0.50300000  0.32260000  0.31530000  1
  C  C367  1  0.44570000  0.15420000  0.26500000  1
  C  C368  1  0.44720000  0.11730000  0.22550000  1
  C  C369  1  0.48140000  0.18380000  0.17070000  1
  C  C370  1  0.35660000  0.35660000  0.35660000  1
  C  C371  1  0.32490000  0.32490000  0.32490000  1
  C  C372  1  0.51400000  0.81957000  0.13527000  1
  C  C373  1  0.50625000  0.86352000  0.10039000  1
  C  C374  1  0.53650000  0.63380000  0.32180000  1
  C  C375  1  0.53280000  0.59846000  0.36590000  1
  C  C376  1  0.52690000  0.74160000  0.20330000  1
  C  C377  1  0.53250000  0.70150000  0.24270000  1
  C  C378  1  0.54210000  0.73280000  0.15160000  1
  C  C379  1  0.53640000  0.77320000  0.11790000  1
  C  C380  1  0.49700000  0.82260000  0.18470000  1
  C  C381  1  0.55430000  0.65420000  0.23500000  1
  C  C382  1  0.55280000  0.61730000  0.27450000  1
  C  C383  1  0.51860000  0.68380000  0.32930000  1
  C  C384  1  0.64340000  0.85660000  0.14340000  1
  C  C385  1  0.67510000  0.82490000  0.17510000  1
  C  C386  1  0.98600000  0.18043000  0.63527000  1
  C  C387  1  0.99375000  0.13648000  0.60039000  1
  C  C388  1  0.96350000  0.36620000  0.82180000  1
  C  C389  1  0.96720000  0.40154000  0.86590000  1
  C  C390  1  0.97310000  0.25840000  0.70330000  1
  C  C391  1  0.96750000  0.29850000  0.74270000  1
  C  C392  1  0.95790000  0.26720000  0.65160000  1
  C  C393  1  0.96360000  0.22680000  0.61790000  1
  C  C394  1  0.00300000  0.17740000  0.68470000  1
  C  C395  1  0.94570000  0.34580000  0.73500000  1
  C  C396  1  0.94720000  0.38270000  0.77450000  1
  C  C397  1  0.98140000  0.31620000  0.82930000  1
  C  C398  1  0.85660000  0.14340000  0.64340000  1
  C  C399  1  0.82490000  0.17510000  0.67510000  1
  C  C400  1  0.86473000  0.01400000  0.68043000  1
  C  C401  1  0.89961000  0.00625000  0.63648000  1
  C  C402  1  0.67820000  0.03650000  0.86620000  1
  C  C403  1  0.63410000  0.03280000  0.90154000  1
  C  C404  1  0.79670000  0.02690000  0.75840000  1
  C  C405  1  0.75730000  0.03250000  0.79850000  1
  C  C406  1  0.84840000  0.04210000  0.76720000  1
  C  C407  1  0.88210000  0.03640000  0.72680000  1
  C  C408  1  0.81530000  0.99700000  0.67740000  1
  C  C409  1  0.76500000  0.05430000  0.84580000  1
  C  C410  1  0.72550000  0.05280000  0.88270000  1
  C  C411  1  0.67070000  0.01860000  0.81620000  1
  C  C412  1  0.63527000  0.98600000  0.18043000  1
  C  C413  1  0.60039000  0.99375000  0.13648000  1
  C  C414  1  0.82180000  0.96350000  0.36620000  1
  C  C415  1  0.86590000  0.96720000  0.40154000  1
  C  C416  1  0.70330000  0.97310000  0.25840000  1
  C  C417  1  0.74270000  0.96750000  0.29850000  1
  C  C418  1  0.65160000  0.95790000  0.26720000  1
  C  C419  1  0.61790000  0.96360000  0.22680000  1
  C  C420  1  0.68470000  0.00300000  0.17740000  1
  C  C421  1  0.73500000  0.94570000  0.34580000  1
  C  C422  1  0.77450000  0.94720000  0.38270000  1
  C  C423  1  0.82930000  0.98140000  0.31620000  1
  C  C424  1  0.36473000  0.48600000  0.31957000  1
  C  C425  1  0.39961000  0.49375000  0.36352000  1
  C  C426  1  0.17820000  0.46350000  0.13380000  1
  C  C427  1  0.13410000  0.46720000  0.09846000  1
  C  C428  1  0.29670000  0.47310000  0.24160000  1
  C  C429  1  0.25730000  0.46750000  0.20150000  1
  C  C430  1  0.34840000  0.45790000  0.23280000  1
  C  C431  1  0.38210000  0.46360000  0.27320000  1
  C  C432  1  0.31530000  0.50300000  0.32260000  1
  C  C433  1  0.26500000  0.44570000  0.15420000  1
  C  C434  1  0.22550000  0.44720000  0.11730000  1
  C  C435  1  0.17070000  0.48140000  0.18380000  1
  C  C436  1  0.13527000  0.51400000  0.81957000  1
  C  C437  1  0.10039000  0.50625000  0.86352000  1
  C  C438  1  0.32180000  0.53650000  0.63380000  1
  C  C439  1  0.36590000  0.53280000  0.59846000  1
  C  C440  1  0.20330000  0.52690000  0.74160000  1
  C  C441  1  0.24270000  0.53250000  0.70150000  1
  C  C442  1  0.15160000  0.54210000  0.73280000  1
  C  C443  1  0.11790000  0.53640000  0.77320000  1
  C  C444  1  0.18470000  0.49700000  0.82260000  1
  C  C445  1  0.23500000  0.55430000  0.65420000  1
  C  C446  1  0.27450000  0.55280000  0.61730000  1
  C  C447  1  0.32930000  0.51860000  0.68380000  1
  C  C448  1  0.68043000  0.86473000  0.01400000  1
  C  C449  1  0.63648000  0.89961000  0.00625000  1
  C  C450  1  0.86620000  0.67820000  0.03650000  1
  C  C451  1  0.90154000  0.63410000  0.03280000  1
  C  C452  1  0.75840000  0.79670000  0.02690000  1
  C  C453  1  0.79850000  0.75730000  0.03250000  1
  C  C454  1  0.76720000  0.84840000  0.04210000  1
  C  C455  1  0.72680000  0.88210000  0.03640000  1
  C  C456  1  0.67740000  0.81530000  0.99700000  1
  C  C457  1  0.84580000  0.76500000  0.05430000  1
  C  C458  1  0.88270000  0.72550000  0.05280000  1
  C  C459  1  0.81620000  0.67070000  0.01860000  1
  C  C460  1  0.18043000  0.63527000  0.98600000  1
  C  C461  1  0.13648000  0.60039000  0.99375000  1
  C  C462  1  0.36620000  0.82180000  0.96350000  1
  C  C463  1  0.40154000  0.86590000  0.96720000  1
  C  C464  1  0.25840000  0.70330000  0.97310000  1
  C  C465  1  0.29850000  0.74270000  0.96750000  1
  C  C466  1  0.26720000  0.65160000  0.95790000  1
  C  C467  1  0.22680000  0.61790000  0.96360000  1
  C  C468  1  0.17740000  0.68470000  0.00300000  1
  C  C469  1  0.34580000  0.73500000  0.94570000  1
  C  C470  1  0.38270000  0.77450000  0.94720000  1
  C  C471  1  0.31620000  0.82930000  0.98140000  1
  C  C472  1  0.31957000  0.36473000  0.48600000  1
  C  C473  1  0.36352000  0.39961000  0.49375000  1
  C  C474  1  0.13380000  0.17820000  0.46350000  1
  C  C475  1  0.09846000  0.13410000  0.46720000  1
  C  C476  1  0.24160000  0.29670000  0.47310000  1
  C  C477  1  0.20150000  0.25730000  0.46750000  1
  C  C478  1  0.23280000  0.34840000  0.45790000  1
  C  C479  1  0.27320000  0.38210000  0.46360000  1
  C  C480  1  0.32260000  0.31530000  0.50300000  1
  C  C481  1  0.15420000  0.26500000  0.44570000  1
  C  C482  1  0.11730000  0.22550000  0.44720000  1
  C  C483  1  0.18380000  0.17070000  0.48140000  1
  C  C484  1  0.81957000  0.13527000  0.51400000  1
  C  C485  1  0.86352000  0.10039000  0.50625000  1
  C  C486  1  0.63380000  0.32180000  0.53650000  1
  C  C487  1  0.59846000  0.36590000  0.53280000  1
  C  C488  1  0.74160000  0.20330000  0.52690000  1
  C  C489  1  0.70150000  0.24270000  0.53250000  1
  C  C490  1  0.73280000  0.15160000  0.54210000  1
  C  C491  1  0.77320000  0.11790000  0.53640000  1
  C  C492  1  0.82260000  0.18470000  0.49700000  1
  C  C493  1  0.65420000  0.23500000  0.55430000  1
  C  C494  1  0.61730000  0.27450000  0.55280000  1
  C  C495  1  0.68380000  0.32930000  0.51860000  1
  N  N496  1  0.99550000  0.28620000  0.21860000  1
  N  N497  1  0.98420000  0.22150000  0.29010000  1
  N  N498  1  0.88240000  0.38240000  0.11760000  1
  N  N499  1  0.50450000  0.71380000  0.71860000  1
  N  N500  1  0.51580000  0.77850000  0.79010000  1
  N  N501  1  0.61760000  0.61760000  0.61760000  1
  N  N502  1  0.49550000  0.21380000  0.78140000  1
  N  N503  1  0.48420000  0.27850000  0.70990000  1
  N  N504  1  0.38240000  0.11760000  0.88240000  1
  N  N505  1  0.00450000  0.78620000  0.28140000  1
  N  N506  1  0.01580000  0.72150000  0.20990000  1
  N  N507  1  0.11760000  0.88240000  0.38240000  1
  N  N508  1  0.21860000  0.99550000  0.28620000  1
  N  N509  1  0.29010000  0.98420000  0.22150000  1
  N  N510  1  0.28140000  0.00450000  0.78620000  1
  N  N511  1  0.20990000  0.01580000  0.72150000  1
  N  N512  1  0.71860000  0.50450000  0.71380000  1
  N  N513  1  0.79010000  0.51580000  0.77850000  1
  N  N514  1  0.78140000  0.49550000  0.21380000  1
  N  N515  1  0.70990000  0.48420000  0.27850000  1
  N  N516  1  0.28620000  0.21860000  0.99550000  1
  N  N517  1  0.22150000  0.29010000  0.98420000  1
  N  N518  1  0.78620000  0.28140000  0.00450000  1
  N  N519  1  0.72150000  0.20990000  0.01580000  1
  N  N520  1  0.71380000  0.71860000  0.50450000  1
  N  N521  1  0.77850000  0.79010000  0.51580000  1
  N  N522  1  0.21380000  0.78140000  0.49550000  1
  N  N523  1  0.27850000  0.70990000  0.48420000  1
  N  N524  1  0.00450000  0.71380000  0.78140000  1
  N  N525  1  0.01580000  0.77850000  0.70990000  1
  N  N526  1  0.11760000  0.61760000  0.88240000  1
  N  N527  1  0.49550000  0.28620000  0.28140000  1
  N  N528  1  0.48420000  0.22150000  0.20990000  1
  N  N529  1  0.38240000  0.38240000  0.38240000  1
  N  N530  1  0.50450000  0.78620000  0.21860000  1
  N  N531  1  0.51580000  0.72150000  0.29010000  1
  N  N532  1  0.61760000  0.88240000  0.11760000  1
  N  N533  1  0.99550000  0.21380000  0.71860000  1
  N  N534  1  0.98420000  0.27850000  0.79010000  1
  N  N535  1  0.88240000  0.11760000  0.61760000  1
  N  N536  1  0.78140000  0.00450000  0.71380000  1
  N  N537  1  0.70990000  0.01580000  0.77850000  1
  N  N538  1  0.71860000  0.99550000  0.21380000  1
  N  N539  1  0.79010000  0.98420000  0.27850000  1
  N  N540  1  0.28140000  0.49550000  0.28620000  1
  N  N541  1  0.20990000  0.48420000  0.22150000  1
  N  N542  1  0.21860000  0.50450000  0.78620000  1
  N  N543  1  0.29010000  0.51580000  0.72150000  1
  N  N544  1  0.71380000  0.78140000  0.00450000  1
  N  N545  1  0.77850000  0.70990000  0.01580000  1
  N  N546  1  0.21380000  0.71860000  0.99550000  1
  N  N547  1  0.27850000  0.79010000  0.98420000  1
  N  N548  1  0.28620000  0.28140000  0.49550000  1
  N  N549  1  0.22150000  0.20990000  0.48420000  1
  N  N550  1  0.78620000  0.21860000  0.50450000  1
  N  N551  1  0.72150000  0.29010000  0.51580000  1
  Cl  Cl552  1  0.01620000  0.29490000  0.38680000  1
  Cl  Cl553  1  0.03020000  0.37810000  0.29220000  1
  Cl  Cl554  1  0.48380000  0.70510000  0.88680000  1
  Cl  Cl555  1  0.46980000  0.62190000  0.79220000  1
  Cl  Cl556  1  0.51620000  0.20510000  0.61320000  1
  Cl  Cl557  1  0.53020000  0.12190000  0.70780000  1
  Cl  Cl558  1  0.98380000  0.79490000  0.11320000  1
  Cl  Cl559  1  0.96980000  0.87810000  0.20780000  1
  Cl  Cl560  1  0.38680000  0.01620000  0.29490000  1
  Cl  Cl561  1  0.29220000  0.03020000  0.37810000  1
  Cl  Cl562  1  0.11320000  0.98380000  0.79490000  1
  Cl  Cl563  1  0.20780000  0.96980000  0.87810000  1
  Cl  Cl564  1  0.88680000  0.48380000  0.70510000  1
  Cl  Cl565  1  0.79220000  0.46980000  0.62190000  1
  Cl  Cl566  1  0.61320000  0.51620000  0.20510000  1
  Cl  Cl567  1  0.70780000  0.53020000  0.12190000  1
  Cl  Cl568  1  0.29490000  0.38680000  0.01620000  1
  Cl  Cl569  1  0.37810000  0.29220000  0.03020000  1
  Cl  Cl570  1  0.79490000  0.11320000  0.98380000  1
  Cl  Cl571  1  0.87810000  0.20780000  0.96980000  1
  Cl  Cl572  1  0.70510000  0.88680000  0.48380000  1
  Cl  Cl573  1  0.62190000  0.79220000  0.46980000  1
  Cl  Cl574  1  0.20510000  0.61320000  0.51620000  1
  Cl  Cl575  1  0.12190000  0.70780000  0.53020000  1
  Cl  Cl576  1  0.98380000  0.70510000  0.61320000  1
  Cl  Cl577  1  0.96980000  0.62190000  0.70780000  1
  Cl  Cl578  1  0.51620000  0.29490000  0.11320000  1
  Cl  Cl579  1  0.53020000  0.37810000  0.20780000  1
  Cl  Cl580  1  0.48380000  0.79490000  0.38680000  1
  Cl  Cl581  1  0.46980000  0.87810000  0.29220000  1
  Cl  Cl582  1  0.01620000  0.20510000  0.88680000  1
  Cl  Cl583  1  0.03020000  0.12190000  0.79220000  1
  Cl  Cl584  1  0.61320000  0.98380000  0.70510000  1
  Cl  Cl585  1  0.70780000  0.96980000  0.62190000  1
  Cl  Cl586  1  0.88680000  0.01620000  0.20510000  1
  Cl  Cl587  1  0.79220000  0.03020000  0.12190000  1
  Cl  Cl588  1  0.11320000  0.51620000  0.29490000  1
  Cl  Cl589  1  0.20780000  0.53020000  0.37810000  1
  Cl  Cl590  1  0.38680000  0.48380000  0.79490000  1
  Cl  Cl591  1  0.29220000  0.46980000  0.87810000  1
  Cl  Cl592  1  0.70510000  0.61320000  0.98380000  1
  Cl  Cl593  1  0.62190000  0.70780000  0.96980000  1
  Cl  Cl594  1  0.20510000  0.88680000  0.01620000  1
  Cl  Cl595  1  0.12190000  0.79220000  0.03020000  1
  Cl  Cl596  1  0.29490000  0.11320000  0.51620000  1
  Cl  Cl597  1  0.37810000  0.20780000  0.53020000  1
  Cl  Cl598  1  0.79490000  0.38680000  0.48380000  1
  Cl  Cl599  1  0.87810000  0.29220000  0.46980000  1
  O  O600  1  0.93170000  0.46440000  0.94950000  1
  O  O601  1  0.00641000  0.40551000  0.12166000  1
  O  O602  1  0.98735000  0.35497000  0.05292000  1
  O  O603  1  0.96810000  0.12041000  0.40977000  1
  O  O604  1  0.96915000  0.05116000  0.35666000  1
  O  O605  1  0.94740000  0.44740000  0.05260000  1
  O  O606  1  0.56830000  0.53560000  0.44950000  1
  O  O607  1  0.49359000  0.59449000  0.62166000  1
  O  O608  1  0.51265000  0.64503000  0.55292000  1
  O  O609  1  0.53190000  0.87959000  0.90977000  1
  O  O610  1  0.53085000  0.94884000  0.85666000  1
  O  O611  1  0.55260000  0.55260000  0.55260000  1
  O  O612  1  0.43170000  0.03560000  0.05050000  1
  O  O613  1  0.50641000  0.09449000  0.87834000  1
  O  O614  1  0.48735000  0.14503000  0.94708000  1
  O  O615  1  0.46810000  0.37959000  0.59023000  1
  O  O616  1  0.46915000  0.44884000  0.64334000  1
  O  O617  1  0.44740000  0.05260000  0.94740000  1
  O  O618  1  0.06830000  0.96440000  0.55050000  1
  O  O619  1  0.99359000  0.90551000  0.37834000  1
  O  O620  1  0.01265000  0.85497000  0.44708000  1
  O  O621  1  0.03190000  0.62041000  0.09023000  1
  O  O622  1  0.03085000  0.55116000  0.14334000  1
  O  O623  1  0.05260000  0.94740000  0.44740000  1
  O  O624  1  0.94950000  0.93170000  0.46440000  1
  O  O625  1  0.12166000  0.00641000  0.40551000  1
  O  O626  1  0.05292000  0.98735000  0.35497000  1
  O  O627  1  0.40977000  0.96810000  0.12041000  1
  O  O628  1  0.35666000  0.96915000  0.05116000  1
  O  O629  1  0.55050000  0.06830000  0.96440000  1
  O  O630  1  0.37834000  0.99359000  0.90551000  1
  O  O631  1  0.44708000  0.01265000  0.85497000  1
  O  O632  1  0.09023000  0.03190000  0.62041000  1
  O  O633  1  0.14334000  0.03085000  0.55116000  1
  O  O634  1  0.44950000  0.56830000  0.53560000  1
  O  O635  1  0.62166000  0.49359000  0.59449000  1
  O  O636  1  0.55292000  0.51265000  0.64503000  1
  O  O637  1  0.90977000  0.53190000  0.87959000  1
  O  O638  1  0.85666000  0.53085000  0.94884000  1
  O  O639  1  0.05050000  0.43170000  0.03560000  1
  O  O640  1  0.87834000  0.50641000  0.09449000  1
  O  O641  1  0.94708000  0.48735000  0.14503000  1
  O  O642  1  0.59023000  0.46810000  0.37959000  1
  O  O643  1  0.64334000  0.46915000  0.44884000  1
  O  O644  1  0.46440000  0.94950000  0.93170000  1
  O  O645  1  0.40551000  0.12166000  0.00641000  1
  O  O646  1  0.35497000  0.05292000  0.98735000  1
  O  O647  1  0.12041000  0.40977000  0.96810000  1
  O  O648  1  0.05116000  0.35666000  0.96915000  1
  O  O649  1  0.96440000  0.55050000  0.06830000  1
  O  O650  1  0.90551000  0.37834000  0.99359000  1
  O  O651  1  0.85497000  0.44708000  0.01265000  1
  O  O652  1  0.62041000  0.09023000  0.03190000  1
  O  O653  1  0.55116000  0.14334000  0.03085000  1
  O  O654  1  0.53560000  0.44950000  0.56830000  1
  O  O655  1  0.59449000  0.62166000  0.49359000  1
  O  O656  1  0.64503000  0.55292000  0.51265000  1
  O  O657  1  0.87959000  0.90977000  0.53190000  1
  O  O658  1  0.94884000  0.85666000  0.53085000  1
  O  O659  1  0.03560000  0.05050000  0.43170000  1
  O  O660  1  0.09449000  0.87834000  0.50641000  1
  O  O661  1  0.14503000  0.94708000  0.48735000  1
  O  O662  1  0.37959000  0.59023000  0.46810000  1
  O  O663  1  0.44884000  0.64334000  0.46915000  1
  O  O664  1  0.06830000  0.53560000  0.05050000  1
  O  O665  1  0.99359000  0.59449000  0.87834000  1
  O  O666  1  0.01265000  0.64503000  0.94708000  1
  O  O667  1  0.03190000  0.87959000  0.59023000  1
  O  O668  1  0.03085000  0.94884000  0.64334000  1
  O  O669  1  0.05260000  0.55260000  0.94740000  1
  O  O670  1  0.43170000  0.46440000  0.55050000  1
  O  O671  1  0.50641000  0.40551000  0.37834000  1
  O  O672  1  0.48735000  0.35497000  0.44708000  1
  O  O673  1  0.46810000  0.12041000  0.09023000  1
  O  O674  1  0.46915000  0.05116000  0.14334000  1
  O  O675  1  0.44740000  0.44740000  0.44740000  1
  O  O676  1  0.56830000  0.96440000  0.94950000  1
  O  O677  1  0.49359000  0.90551000  0.12166000  1
  O  O678  1  0.51265000  0.85497000  0.05292000  1
  O  O679  1  0.53190000  0.62041000  0.40977000  1
  O  O680  1  0.53085000  0.55116000  0.35666000  1
  O  O681  1  0.55260000  0.94740000  0.05260000  1
  O  O682  1  0.93170000  0.03560000  0.44950000  1
  O  O683  1  0.00641000  0.09449000  0.62166000  1
  O  O684  1  0.98735000  0.14503000  0.55292000  1
  O  O685  1  0.96810000  0.37959000  0.90977000  1
  O  O686  1  0.96915000  0.44884000  0.85666000  1
  O  O687  1  0.94740000  0.05260000  0.55260000  1
  O  O688  1  0.05050000  0.06830000  0.53560000  1
  O  O689  1  0.87834000  0.99359000  0.59449000  1
  O  O690  1  0.94708000  0.01265000  0.64503000  1
  O  O691  1  0.59023000  0.03190000  0.87959000  1
  O  O692  1  0.64334000  0.03085000  0.94884000  1
  O  O693  1  0.44950000  0.93170000  0.03560000  1
  O  O694  1  0.62166000  0.00641000  0.09449000  1
  O  O695  1  0.55292000  0.98735000  0.14503000  1
  O  O696  1  0.90977000  0.96810000  0.37959000  1
  O  O697  1  0.85666000  0.96915000  0.44884000  1
  O  O698  1  0.55050000  0.43170000  0.46440000  1
  O  O699  1  0.37834000  0.50641000  0.40551000  1
  O  O700  1  0.44708000  0.48735000  0.35497000  1
  O  O701  1  0.09023000  0.46810000  0.12041000  1
  O  O702  1  0.14334000  0.46915000  0.05116000  1
  O  O703  1  0.94950000  0.56830000  0.96440000  1
  O  O704  1  0.12166000  0.49359000  0.90551000  1
  O  O705  1  0.05292000  0.51265000  0.85497000  1
  O  O706  1  0.40977000  0.53190000  0.62041000  1
  O  O707  1  0.35666000  0.53085000  0.55116000  1
  O  O708  1  0.53560000  0.05050000  0.06830000  1
  O  O709  1  0.59449000  0.87834000  0.99359000  1
  O  O710  1  0.64503000  0.94708000  0.01265000  1
  O  O711  1  0.87959000  0.59023000  0.03190000  1
  O  O712  1  0.94884000  0.64334000  0.03085000  1
  O  O713  1  0.03560000  0.44950000  0.93170000  1
  O  O714  1  0.09449000  0.62166000  0.00641000  1
  O  O715  1  0.14503000  0.55292000  0.98735000  1
  O  O716  1  0.37959000  0.90977000  0.96810000  1
  O  O717  1  0.44884000  0.85666000  0.96915000  1
  O  O718  1  0.46440000  0.55050000  0.43170000  1
  O  O719  1  0.40551000  0.37834000  0.50641000  1
  O  O720  1  0.35497000  0.44708000  0.48735000  1
  O  O721  1  0.12041000  0.09023000  0.46810000  1
  O  O722  1  0.05116000  0.14334000  0.46915000  1
  O  O723  1  0.96440000  0.94950000  0.56830000  1
  O  O724  1  0.90551000  0.12166000  0.49359000  1
  O  O725  1  0.85497000  0.05292000  0.51265000  1
  O  O726  1  0.62041000  0.40977000  0.53190000  1
  O  O727  1  0.55116000  0.35666000  0.53085000  1
