# generated using pymatgen
data_Zr3Cu3H18C36N6(Cl3O8)2
_symmetry_space_group_name_H-M   'P 1'
_cell_length_a   26.08870000
_cell_length_b   26.08870000
_cell_length_c   26.08870000
_cell_angle_alpha   90.00000000
_cell_angle_beta   90.00000000
_cell_angle_gamma   90.00000000
_symmetry_Int_Tables_number   1
_chemical_formula_structural   Zr3Cu3H18C36N6(Cl3O8)2
_chemical_formula_sum   'Zr24 Cu24 H144 C288 N48 Cl48 O128'
_cell_volume   17756.49797768
_cell_formula_units_Z   8
loop_
 _symmetry_equiv_pos_site_id
 _symmetry_equiv_pos_as_xyz
  1  'x, y, z'
loop_
 _atom_site_type_symbol
 _atom_site_label
 _atom_site_symmetry_multiplicity
 _atom_site_fract_x
 _atom_site_fract_y
 _atom_site_fract_z
 _atom_site_occupancy
  Zr  Zr0  1  0.51544000  0.48355000  0.40883000  1
  Zr  Zr1  1  0.98456000  0.51645000  0.90883000  1
  Zr  Zr2  1  0.01544000  0.01645000  0.59117000  1
  Zr  Zr3  1  0.48456000  0.98355000  0.09117000  1
  Zr  Zr4  1  0.40883000  0.51544000  0.48355000  1
  Zr  Zr5  1  0.09117000  0.48456000  0.98355000  1
  Zr  Zr6  1  0.90883000  0.98456000  0.51645000  1
  Zr  Zr7  1  0.59117000  0.01544000  0.01645000  1
  Zr  Zr8  1  0.48355000  0.40883000  0.51544000  1
  Zr  Zr9  1  0.98355000  0.09117000  0.48456000  1
  Zr  Zr10  1  0.51645000  0.90883000  0.98456000  1
  Zr  Zr11  1  0.01645000  0.59117000  0.01544000  1
  Zr  Zr12  1  0.48456000  0.51645000  0.59117000  1
  Zr  Zr13  1  0.01544000  0.48355000  0.09117000  1
  Zr  Zr14  1  0.98456000  0.98355000  0.40883000  1
  Zr  Zr15  1  0.51544000  0.01645000  0.90883000  1
  Zr  Zr16  1  0.59117000  0.48456000  0.51645000  1
  Zr  Zr17  1  0.90883000  0.51544000  0.01645000  1
  Zr  Zr18  1  0.09117000  0.01544000  0.48355000  1
  Zr  Zr19  1  0.40883000  0.98456000  0.98355000  1
  Zr  Zr20  1  0.51645000  0.59117000  0.48456000  1
  Zr  Zr21  1  0.01645000  0.90883000  0.51544000  1
  Zr  Zr22  1  0.48355000  0.09117000  0.01544000  1
  Zr  Zr23  1  0.98355000  0.40883000  0.98456000  1
  Cu  Cu24  1  0.20751000  0.48054000  0.28843000  1
  Cu  Cu25  1  0.29249000  0.51946000  0.78843000  1
  Cu  Cu26  1  0.70751000  0.01946000  0.71157000  1
  Cu  Cu27  1  0.79249000  0.98054000  0.21157000  1
  Cu  Cu28  1  0.28843000  0.20751000  0.48054000  1
  Cu  Cu29  1  0.21157000  0.79249000  0.98054000  1
  Cu  Cu30  1  0.78843000  0.29249000  0.51946000  1
  Cu  Cu31  1  0.71157000  0.70751000  0.01946000  1
  Cu  Cu32  1  0.48054000  0.28843000  0.20751000  1
  Cu  Cu33  1  0.98054000  0.21157000  0.79249000  1
  Cu  Cu34  1  0.51946000  0.78843000  0.29249000  1
  Cu  Cu35  1  0.01946000  0.71157000  0.70751000  1
  Cu  Cu36  1  0.79249000  0.51946000  0.71157000  1
  Cu  Cu37  1  0.70751000  0.48054000  0.21157000  1
  Cu  Cu38  1  0.29249000  0.98054000  0.28843000  1
  Cu  Cu39  1  0.20751000  0.01946000  0.78843000  1
  Cu  Cu40  1  0.71157000  0.79249000  0.51946000  1
  Cu  Cu41  1  0.78843000  0.20751000  0.01946000  1
  Cu  Cu42  1  0.21157000  0.70751000  0.48054000  1
  Cu  Cu43  1  0.28843000  0.29249000  0.98054000  1
  Cu  Cu44  1  0.51946000  0.71157000  0.79249000  1
  Cu  Cu45  1  0.01946000  0.78843000  0.20751000  1
  Cu  Cu46  1  0.48054000  0.21157000  0.70751000  1
  Cu  Cu47  1  0.98054000  0.28843000  0.29249000  1
  H  H48  1  0.36896000  0.44425000  0.19702000  1
  H  H49  1  0.42179000  0.45508000  0.26789000  1
  H  H50  1  0.30099000  0.50385000  0.35050000  1
  H  H51  1  0.30376000  0.43971000  0.13888000  1
  H  H52  1  0.23426000  0.43677000  0.08326000  1
  H  H53  1  0.14218000  0.48877000  0.19558000  1
  H  H54  1  0.13104000  0.55575000  0.69702000  1
  H  H55  1  0.07821000  0.54492000  0.76789000  1
  H  H56  1  0.19901000  0.49615000  0.85050000  1
  H  H57  1  0.19624000  0.56029000  0.63888000  1
  H  H58  1  0.26574000  0.56323000  0.58326000  1
  H  H59  1  0.35782000  0.51123000  0.69558000  1
  H  H60  1  0.86896000  0.05575000  0.80298000  1
  H  H61  1  0.92179000  0.04492000  0.73211000  1
  H  H62  1  0.80099000  0.99615000  0.64950000  1
  H  H63  1  0.80376000  0.06029000  0.86112000  1
  H  H64  1  0.73426000  0.06323000  0.91674000  1
  H  H65  1  0.64218000  0.01123000  0.80442000  1
  H  H66  1  0.63104000  0.94425000  0.30298000  1
  H  H67  1  0.57821000  0.95508000  0.23211000  1
  H  H68  1  0.69901000  0.00385000  0.14950000  1
  H  H69  1  0.69624000  0.93971000  0.36112000  1
  H  H70  1  0.76574000  0.93677000  0.41674000  1
  H  H71  1  0.85782000  0.98877000  0.30442000  1
  H  H72  1  0.19702000  0.36896000  0.44425000  1
  H  H73  1  0.26789000  0.42179000  0.45508000  1
  H  H74  1  0.35050000  0.30099000  0.50385000  1
  H  H75  1  0.13888000  0.30376000  0.43971000  1
  H  H76  1  0.08326000  0.23426000  0.43677000  1
  H  H77  1  0.19558000  0.14218000  0.48877000  1
  H  H78  1  0.30298000  0.63104000  0.94425000  1
  H  H79  1  0.23211000  0.57821000  0.95508000  1
  H  H80  1  0.14950000  0.69901000  0.00385000  1
  H  H81  1  0.36112000  0.69624000  0.93971000  1
  H  H82  1  0.41674000  0.76574000  0.93677000  1
  H  H83  1  0.30442000  0.85782000  0.98877000  1
  H  H84  1  0.69702000  0.13104000  0.55575000  1
  H  H85  1  0.76789000  0.07821000  0.54492000  1
  H  H86  1  0.85050000  0.19901000  0.49615000  1
  H  H87  1  0.63888000  0.19624000  0.56029000  1
  H  H88  1  0.58326000  0.26574000  0.56323000  1
  H  H89  1  0.69558000  0.35782000  0.51123000  1
  H  H90  1  0.80298000  0.86896000  0.05575000  1
  H  H91  1  0.73211000  0.92179000  0.04492000  1
  H  H92  1  0.64950000  0.80099000  0.99615000  1
  H  H93  1  0.86112000  0.80376000  0.06029000  1
  H  H94  1  0.91674000  0.73426000  0.06323000  1
  H  H95  1  0.80442000  0.64218000  0.01123000  1
  H  H96  1  0.44425000  0.19702000  0.36896000  1
  H  H97  1  0.45508000  0.26789000  0.42179000  1
  H  H98  1  0.50385000  0.35050000  0.30099000  1
  H  H99  1  0.43971000  0.13888000  0.30376000  1
  H  H100  1  0.43677000  0.08326000  0.23426000  1
  H  H101  1  0.48877000  0.19558000  0.14218000  1
  H  H102  1  0.94425000  0.30298000  0.63104000  1
  H  H103  1  0.95508000  0.23211000  0.57821000  1
  H  H104  1  0.00385000  0.14950000  0.69901000  1
  H  H105  1  0.93971000  0.36112000  0.69624000  1
  H  H106  1  0.93677000  0.41674000  0.76574000  1
  H  H107  1  0.98877000  0.30442000  0.85782000  1
  H  H108  1  0.55575000  0.69702000  0.13104000  1
  H  H109  1  0.54492000  0.76789000  0.07821000  1
  H  H110  1  0.49615000  0.85050000  0.19901000  1
  H  H111  1  0.56029000  0.63888000  0.19624000  1
  H  H112  1  0.56323000  0.58326000  0.26574000  1
  H  H113  1  0.51123000  0.69558000  0.35782000  1
  H  H114  1  0.05575000  0.80298000  0.86896000  1
  H  H115  1  0.04492000  0.73211000  0.92179000  1
  H  H116  1  0.99615000  0.64950000  0.80099000  1
  H  H117  1  0.06029000  0.86112000  0.80376000  1
  H  H118  1  0.06323000  0.91674000  0.73426000  1
  H  H119  1  0.01123000  0.80442000  0.64218000  1
  H  H120  1  0.63104000  0.55575000  0.80298000  1
  H  H121  1  0.57821000  0.54492000  0.73211000  1
  H  H122  1  0.69901000  0.49615000  0.64950000  1
  H  H123  1  0.69624000  0.56029000  0.86112000  1
  H  H124  1  0.76574000  0.56323000  0.91674000  1
  H  H125  1  0.85782000  0.51123000  0.80442000  1
  H  H126  1  0.86896000  0.44425000  0.30298000  1
  H  H127  1  0.92179000  0.45508000  0.23211000  1
  H  H128  1  0.80099000  0.50385000  0.14950000  1
  H  H129  1  0.80376000  0.43971000  0.36112000  1
  H  H130  1  0.73426000  0.43677000  0.41674000  1
  H  H131  1  0.64218000  0.48877000  0.30442000  1
  H  H132  1  0.13104000  0.94425000  0.19702000  1
  H  H133  1  0.07821000  0.95508000  0.26789000  1
  H  H134  1  0.19901000  0.00385000  0.35050000  1
  H  H135  1  0.19624000  0.93971000  0.13888000  1
  H  H136  1  0.26574000  0.93677000  0.08326000  1
  H  H137  1  0.35782000  0.98877000  0.19558000  1
  H  H138  1  0.36896000  0.05575000  0.69702000  1
  H  H139  1  0.42179000  0.04492000  0.76789000  1
  H  H140  1  0.30099000  0.99615000  0.85050000  1
  H  H141  1  0.30376000  0.06029000  0.63888000  1
  H  H142  1  0.23426000  0.06323000  0.58326000  1
  H  H143  1  0.14218000  0.01123000  0.69558000  1
  H  H144  1  0.80298000  0.63104000  0.55575000  1
  H  H145  1  0.73211000  0.57821000  0.54492000  1
  H  H146  1  0.64950000  0.69901000  0.49615000  1
  H  H147  1  0.86112000  0.69624000  0.56029000  1
  H  H148  1  0.91674000  0.76574000  0.56323000  1
  H  H149  1  0.80442000  0.85782000  0.51123000  1
  H  H150  1  0.69702000  0.36896000  0.05575000  1
  H  H151  1  0.76789000  0.42179000  0.04492000  1
  H  H152  1  0.85050000  0.30099000  0.99615000  1
  H  H153  1  0.63888000  0.30376000  0.06029000  1
  H  H154  1  0.58326000  0.23426000  0.06323000  1
  H  H155  1  0.69558000  0.14218000  0.01123000  1
  H  H156  1  0.30298000  0.86896000  0.44425000  1
  H  H157  1  0.23211000  0.92179000  0.45508000  1
  H  H158  1  0.14950000  0.80099000  0.50385000  1
  H  H159  1  0.36112000  0.80376000  0.43971000  1
  H  H160  1  0.41674000  0.73426000  0.43677000  1
  H  H161  1  0.30442000  0.64218000  0.48877000  1
  H  H162  1  0.19702000  0.13104000  0.94425000  1
  H  H163  1  0.26789000  0.07821000  0.95508000  1
  H  H164  1  0.35050000  0.19901000  0.00385000  1
  H  H165  1  0.13888000  0.19624000  0.93971000  1
  H  H166  1  0.08326000  0.26574000  0.93677000  1
  H  H167  1  0.19558000  0.35782000  0.98877000  1
  H  H168  1  0.55575000  0.80298000  0.63104000  1
  H  H169  1  0.54492000  0.73211000  0.57821000  1
  H  H170  1  0.49615000  0.64950000  0.69901000  1
  H  H171  1  0.56029000  0.86112000  0.69624000  1
  H  H172  1  0.56323000  0.91674000  0.76574000  1
  H  H173  1  0.51123000  0.80442000  0.85782000  1
  H  H174  1  0.05575000  0.69702000  0.36896000  1
  H  H175  1  0.04492000  0.76789000  0.42179000  1
  H  H176  1  0.99615000  0.85050000  0.30099000  1
  H  H177  1  0.06029000  0.63888000  0.30376000  1
  H  H178  1  0.06323000  0.58326000  0.23426000  1
  H  H179  1  0.01123000  0.69558000  0.14218000  1
  H  H180  1  0.44425000  0.30298000  0.86896000  1
  H  H181  1  0.45508000  0.23211000  0.92179000  1
  H  H182  1  0.50385000  0.14950000  0.80099000  1
  H  H183  1  0.43971000  0.36112000  0.80376000  1
  H  H184  1  0.43677000  0.41674000  0.73426000  1
  H  H185  1  0.48877000  0.30442000  0.64218000  1
  H  H186  1  0.94425000  0.19702000  0.13104000  1
  H  H187  1  0.95508000  0.26789000  0.07821000  1
  H  H188  1  0.00385000  0.35050000  0.19901000  1
  H  H189  1  0.93971000  0.13888000  0.19624000  1
  H  H190  1  0.93677000  0.08326000  0.26574000  1
  H  H191  1  0.98877000  0.19558000  0.35782000  1
  C  C192  1  0.30374000  0.46765000  0.23186000  1
  C  C193  1  0.35506000  0.45644000  0.22840000  1
  C  C194  1  0.38630000  0.46284000  0.27029000  1
  C  C195  1  0.36621000  0.48045000  0.31566000  1
  C  C196  1  0.31489000  0.49167000  0.31912000  1
  C  C197  1  0.26405000  0.46598000  0.20010000  1
  C  C198  1  0.27072000  0.44974000  0.15047000  1
  C  C199  1  0.22964000  0.44800000  0.11759000  1
  C  C200  1  0.18189000  0.46250000  0.13435000  1
  C  C201  1  0.17521000  0.47874000  0.18398000  1
  C  C202  1  0.39911000  0.48719000  0.35980000  1
  C  C203  1  0.13860000  0.46068000  0.09971000  1
  C  C204  1  0.19626000  0.53235000  0.73186000  1
  C  C205  1  0.14494000  0.54356000  0.72840000  1
  C  C206  1  0.11370000  0.53716000  0.77029000  1
  C  C207  1  0.13379000  0.51955000  0.81566000  1
  C  C208  1  0.18511000  0.50833000  0.81912000  1
  C  C209  1  0.23595000  0.53402000  0.70010000  1
  C  C210  1  0.22928000  0.55026000  0.65047000  1
  C  C211  1  0.27036000  0.55200000  0.61759000  1
  C  C212  1  0.31811000  0.53750000  0.63435000  1
  C  C213  1  0.32479000  0.52126000  0.68398000  1
  C  C214  1  0.10089000  0.51281000  0.85980000  1
  C  C215  1  0.36140000  0.53932000  0.59971000  1
  C  C216  1  0.80374000  0.03235000  0.76814000  1
  C  C217  1  0.85506000  0.04356000  0.77160000  1
  C  C218  1  0.88630000  0.03716000  0.72971000  1
  C  C219  1  0.86621000  0.01955000  0.68434000  1
  C  C220  1  0.81489000  0.00833000  0.68088000  1
  C  C221  1  0.76405000  0.03402000  0.79990000  1
  C  C222  1  0.77072000  0.05026000  0.84953000  1
  C  C223  1  0.72964000  0.05200000  0.88241000  1
  C  C224  1  0.68189000  0.03750000  0.86565000  1
  C  C225  1  0.67521000  0.02126000  0.81602000  1
  C  C226  1  0.89911000  0.01281000  0.64020000  1
  C  C227  1  0.63860000  0.03932000  0.90029000  1
  C  C228  1  0.69626000  0.96765000  0.26814000  1
  C  C229  1  0.64494000  0.95644000  0.27160000  1
  C  C230  1  0.61370000  0.96284000  0.22971000  1
  C  C231  1  0.63379000  0.98045000  0.18434000  1
  C  C232  1  0.68511000  0.99167000  0.18088000  1
  C  C233  1  0.73595000  0.96598000  0.29990000  1
  C  C234  1  0.72928000  0.94974000  0.34953000  1
  C  C235  1  0.77036000  0.94800000  0.38241000  1
  C  C236  1  0.81811000  0.96250000  0.36565000  1
  C  C237  1  0.82479000  0.97874000  0.31602000  1
  C  C238  1  0.60089000  0.98719000  0.14020000  1
  C  C239  1  0.86140000  0.96068000  0.40029000  1
  C  C240  1  0.23186000  0.30374000  0.46765000  1
  C  C241  1  0.22840000  0.35506000  0.45644000  1
  C  C242  1  0.27029000  0.38630000  0.46284000  1
  C  C243  1  0.31566000  0.36621000  0.48045000  1
  C  C244  1  0.31912000  0.31489000  0.49167000  1
  C  C245  1  0.20010000  0.26405000  0.46598000  1
  C  C246  1  0.15047000  0.27072000  0.44974000  1
  C  C247  1  0.11759000  0.22964000  0.44800000  1
  C  C248  1  0.13435000  0.18189000  0.46250000  1
  C  C249  1  0.18398000  0.17521000  0.47874000  1
  C  C250  1  0.35980000  0.39911000  0.48719000  1
  C  C251  1  0.09971000  0.13860000  0.46068000  1
  C  C252  1  0.26814000  0.69626000  0.96765000  1
  C  C253  1  0.27160000  0.64494000  0.95644000  1
  C  C254  1  0.22971000  0.61370000  0.96284000  1
  C  C255  1  0.18434000  0.63379000  0.98045000  1
  C  C256  1  0.18088000  0.68511000  0.99167000  1
  C  C257  1  0.29990000  0.73595000  0.96598000  1
  C  C258  1  0.34953000  0.72928000  0.94974000  1
  C  C259  1  0.38241000  0.77036000  0.94800000  1
  C  C260  1  0.36565000  0.81811000  0.96250000  1
  C  C261  1  0.31602000  0.82479000  0.97874000  1
  C  C262  1  0.14020000  0.60089000  0.98719000  1
  C  C263  1  0.40029000  0.86140000  0.96068000  1
  C  C264  1  0.73186000  0.19626000  0.53235000  1
  C  C265  1  0.72840000  0.14494000  0.54356000  1
  C  C266  1  0.77029000  0.11370000  0.53716000  1
  C  C267  1  0.81566000  0.13379000  0.51955000  1
  C  C268  1  0.81912000  0.18511000  0.50833000  1
  C  C269  1  0.70010000  0.23595000  0.53402000  1
  C  C270  1  0.65047000  0.22928000  0.55026000  1
  C  C271  1  0.61759000  0.27036000  0.55200000  1
  C  C272  1  0.63435000  0.31811000  0.53750000  1
  C  C273  1  0.68398000  0.32479000  0.52126000  1
  C  C274  1  0.85980000  0.10089000  0.51281000  1
  C  C275  1  0.59971000  0.36140000  0.53932000  1
  C  C276  1  0.76814000  0.80374000  0.03235000  1
  C  C277  1  0.77160000  0.85506000  0.04356000  1
  C  C278  1  0.72971000  0.88630000  0.03716000  1
  C  C279  1  0.68434000  0.86621000  0.01955000  1
  C  C280  1  0.68088000  0.81489000  0.00833000  1
  C  C281  1  0.79990000  0.76405000  0.03402000  1
  C  C282  1  0.84953000  0.77072000  0.05026000  1
  C  C283  1  0.88241000  0.72964000  0.05200000  1
  C  C284  1  0.86565000  0.68189000  0.03750000  1
  C  C285  1  0.81602000  0.67521000  0.02126000  1
  C  C286  1  0.64020000  0.89911000  0.01281000  1
  C  C287  1  0.90029000  0.63860000  0.03932000  1
  C  C288  1  0.46765000  0.23186000  0.30374000  1
  C  C289  1  0.45644000  0.22840000  0.35506000  1
  C  C290  1  0.46284000  0.27029000  0.38630000  1
  C  C291  1  0.48045000  0.31566000  0.36621000  1
  C  C292  1  0.49167000  0.31912000  0.31489000  1
  C  C293  1  0.46598000  0.20010000  0.26405000  1
  C  C294  1  0.44974000  0.15047000  0.27072000  1
  C  C295  1  0.44800000  0.11759000  0.22964000  1
  C  C296  1  0.46250000  0.13435000  0.18189000  1
  C  C297  1  0.47874000  0.18398000  0.17521000  1
  C  C298  1  0.48719000  0.35980000  0.39911000  1
  C  C299  1  0.46068000  0.09971000  0.13860000  1
  C  C300  1  0.96765000  0.26814000  0.69626000  1
  C  C301  1  0.95644000  0.27160000  0.64494000  1
  C  C302  1  0.96284000  0.22971000  0.61370000  1
  C  C303  1  0.98045000  0.18434000  0.63379000  1
  C  C304  1  0.99167000  0.18088000  0.68511000  1
  C  C305  1  0.96598000  0.29990000  0.73595000  1
  C  C306  1  0.94974000  0.34953000  0.72928000  1
  C  C307  1  0.94800000  0.38241000  0.77036000  1
  C  C308  1  0.96250000  0.36565000  0.81811000  1
  C  C309  1  0.97874000  0.31602000  0.82479000  1
  C  C310  1  0.98719000  0.14020000  0.60089000  1
  C  C311  1  0.96068000  0.40029000  0.86140000  1
  C  C312  1  0.53235000  0.73186000  0.19626000  1
  C  C313  1  0.54356000  0.72840000  0.14494000  1
  C  C314  1  0.53716000  0.77029000  0.11370000  1
  C  C315  1  0.51955000  0.81566000  0.13379000  1
  C  C316  1  0.50833000  0.81912000  0.18511000  1
  C  C317  1  0.53402000  0.70010000  0.23595000  1
  C  C318  1  0.55026000  0.65047000  0.22928000  1
  C  C319  1  0.55200000  0.61759000  0.27036000  1
  C  C320  1  0.53750000  0.63435000  0.31811000  1
  C  C321  1  0.52126000  0.68398000  0.32479000  1
  C  C322  1  0.51281000  0.85980000  0.10089000  1
  C  C323  1  0.53932000  0.59971000  0.36140000  1
  C  C324  1  0.03235000  0.76814000  0.80374000  1
  C  C325  1  0.04356000  0.77160000  0.85506000  1
  C  C326  1  0.03716000  0.72971000  0.88630000  1
  C  C327  1  0.01955000  0.68434000  0.86621000  1
  C  C328  1  0.00833000  0.68088000  0.81489000  1
  C  C329  1  0.03402000  0.79990000  0.76405000  1
  C  C330  1  0.05026000  0.84953000  0.77072000  1
  C  C331  1  0.05200000  0.88241000  0.72964000  1
  C  C332  1  0.03750000  0.86565000  0.68189000  1
  C  C333  1  0.02126000  0.81602000  0.67521000  1
  C  C334  1  0.01281000  0.64020000  0.89911000  1
  C  C335  1  0.03932000  0.90029000  0.63860000  1
  C  C336  1  0.69626000  0.53235000  0.76814000  1
  C  C337  1  0.64494000  0.54356000  0.77160000  1
  C  C338  1  0.61370000  0.53716000  0.72971000  1
  C  C339  1  0.63379000  0.51955000  0.68434000  1
  C  C340  1  0.68511000  0.50833000  0.68088000  1
  C  C341  1  0.73595000  0.53402000  0.79990000  1
  C  C342  1  0.72928000  0.55026000  0.84953000  1
  C  C343  1  0.77036000  0.55200000  0.88241000  1
  C  C344  1  0.81811000  0.53750000  0.86565000  1
  C  C345  1  0.82479000  0.52126000  0.81602000  1
  C  C346  1  0.60089000  0.51281000  0.64020000  1
  C  C347  1  0.86140000  0.53932000  0.90029000  1
  C  C348  1  0.80374000  0.46765000  0.26814000  1
  C  C349  1  0.85506000  0.45644000  0.27160000  1
  C  C350  1  0.88630000  0.46284000  0.22971000  1
  C  C351  1  0.86621000  0.48045000  0.18434000  1
  C  C352  1  0.81489000  0.49167000  0.18088000  1
  C  C353  1  0.76405000  0.46598000  0.29990000  1
  C  C354  1  0.77072000  0.44974000  0.34953000  1
  C  C355  1  0.72964000  0.44800000  0.38241000  1
  C  C356  1  0.68189000  0.46250000  0.36565000  1
  C  C357  1  0.67521000  0.47874000  0.31602000  1
  C  C358  1  0.89911000  0.48719000  0.14020000  1
  C  C359  1  0.63860000  0.46068000  0.40029000  1
  C  C360  1  0.19626000  0.96765000  0.23186000  1
  C  C361  1  0.14494000  0.95644000  0.22840000  1
  C  C362  1  0.11370000  0.96284000  0.27029000  1
  C  C363  1  0.13379000  0.98045000  0.31566000  1
  C  C364  1  0.18511000  0.99167000  0.31912000  1
  C  C365  1  0.23595000  0.96598000  0.20010000  1
  C  C366  1  0.22928000  0.94974000  0.15047000  1
  C  C367  1  0.27036000  0.94800000  0.11759000  1
  C  C368  1  0.31811000  0.96250000  0.13435000  1
  C  C369  1  0.32479000  0.97874000  0.18398000  1
  C  C370  1  0.10089000  0.98719000  0.35980000  1
  C  C371  1  0.36140000  0.96068000  0.09971000  1
  C  C372  1  0.30374000  0.03235000  0.73186000  1
  C  C373  1  0.35506000  0.04356000  0.72840000  1
  C  C374  1  0.38630000  0.03716000  0.77029000  1
  C  C375  1  0.36621000  0.01955000  0.81566000  1
  C  C376  1  0.31489000  0.00833000  0.81912000  1
  C  C377  1  0.26405000  0.03402000  0.70010000  1
  C  C378  1  0.27072000  0.05026000  0.65047000  1
  C  C379  1  0.22964000  0.05200000  0.61759000  1
  C  C380  1  0.18189000  0.03750000  0.63435000  1
  C  C381  1  0.17521000  0.02126000  0.68398000  1
  C  C382  1  0.39911000  0.01281000  0.85980000  1
  C  C383  1  0.13860000  0.03932000  0.59971000  1
  C  C384  1  0.76814000  0.69626000  0.53235000  1
  C  C385  1  0.77160000  0.64494000  0.54356000  1
  C  C386  1  0.72971000  0.61370000  0.53716000  1
  C  C387  1  0.68434000  0.63379000  0.51955000  1
  C  C388  1  0.68088000  0.68511000  0.50833000  1
  C  C389  1  0.79990000  0.73595000  0.53402000  1
  C  C390  1  0.84953000  0.72928000  0.55026000  1
  C  C391  1  0.88241000  0.77036000  0.55200000  1
  C  C392  1  0.86565000  0.81811000  0.53750000  1
  C  C393  1  0.81602000  0.82479000  0.52126000  1
  C  C394  1  0.64020000  0.60089000  0.51281000  1
  C  C395  1  0.90029000  0.86140000  0.53932000  1
  C  C396  1  0.73186000  0.30374000  0.03235000  1
  C  C397  1  0.72840000  0.35506000  0.04356000  1
  C  C398  1  0.77029000  0.38630000  0.03716000  1
  C  C399  1  0.81566000  0.36621000  0.01955000  1
  C  C400  1  0.81912000  0.31489000  0.00833000  1
  C  C401  1  0.70010000  0.26405000  0.03402000  1
  C  C402  1  0.65047000  0.27072000  0.05026000  1
  C  C403  1  0.61759000  0.22964000  0.05200000  1
  C  C404  1  0.63435000  0.18189000  0.03750000  1
  C  C405  1  0.68398000  0.17521000  0.02126000  1
  C  C406  1  0.85980000  0.39911000  0.01281000  1
  C  C407  1  0.59971000  0.13860000  0.03932000  1
  C  C408  1  0.26814000  0.80374000  0.46765000  1
  C  C409  1  0.27160000  0.85506000  0.45644000  1
  C  C410  1  0.22971000  0.88630000  0.46284000  1
  C  C411  1  0.18434000  0.86621000  0.48045000  1
  C  C412  1  0.18088000  0.81489000  0.49167000  1
  C  C413  1  0.29990000  0.76405000  0.46598000  1
  C  C414  1  0.34953000  0.77072000  0.44974000  1
  C  C415  1  0.38241000  0.72964000  0.44800000  1
  C  C416  1  0.36565000  0.68189000  0.46250000  1
  C  C417  1  0.31602000  0.67521000  0.47874000  1
  C  C418  1  0.14020000  0.89911000  0.48719000  1
  C  C419  1  0.40029000  0.63860000  0.46068000  1
  C  C420  1  0.23186000  0.19626000  0.96765000  1
  C  C421  1  0.22840000  0.14494000  0.95644000  1
  C  C422  1  0.27029000  0.11370000  0.96284000  1
  C  C423  1  0.31566000  0.13379000  0.98045000  1
  C  C424  1  0.31912000  0.18511000  0.99167000  1
  C  C425  1  0.20010000  0.23595000  0.96598000  1
  C  C426  1  0.15047000  0.22928000  0.94974000  1
  C  C427  1  0.11759000  0.27036000  0.94800000  1
  C  C428  1  0.13435000  0.31811000  0.96250000  1
  C  C429  1  0.18398000  0.32479000  0.97874000  1
  C  C430  1  0.35980000  0.10089000  0.98719000  1
  C  C431  1  0.09971000  0.36140000  0.96068000  1
  C  C432  1  0.53235000  0.76814000  0.69626000  1
  C  C433  1  0.54356000  0.77160000  0.64494000  1
  C  C434  1  0.53716000  0.72971000  0.61370000  1
  C  C435  1  0.51955000  0.68434000  0.63379000  1
  C  C436  1  0.50833000  0.68088000  0.68511000  1
  C  C437  1  0.53402000  0.79990000  0.73595000  1
  C  C438  1  0.55026000  0.84953000  0.72928000  1
  C  C439  1  0.55200000  0.88241000  0.77036000  1
  C  C440  1  0.53750000  0.86565000  0.81811000  1
  C  C441  1  0.52126000  0.81602000  0.82479000  1
  C  C442  1  0.51281000  0.64020000  0.60089000  1
  C  C443  1  0.53932000  0.90029000  0.86140000  1
  C  C444  1  0.03235000  0.73186000  0.30374000  1
  C  C445  1  0.04356000  0.72840000  0.35506000  1
  C  C446  1  0.03716000  0.77029000  0.38630000  1
  C  C447  1  0.01955000  0.81566000  0.36621000  1
  C  C448  1  0.00833000  0.81912000  0.31489000  1
  C  C449  1  0.03402000  0.70010000  0.26405000  1
  C  C450  1  0.05026000  0.65047000  0.27072000  1
  C  C451  1  0.05200000  0.61759000  0.22964000  1
  C  C452  1  0.03750000  0.63435000  0.18189000  1
  C  C453  1  0.02126000  0.68398000  0.17521000  1
  C  C454  1  0.01281000  0.85980000  0.39911000  1
  C  C455  1  0.03932000  0.59971000  0.13860000  1
  C  C456  1  0.46765000  0.26814000  0.80374000  1
  C  C457  1  0.45644000  0.27160000  0.85506000  1
  C  C458  1  0.46284000  0.22971000  0.88630000  1
  C  C459  1  0.48045000  0.18434000  0.86621000  1
  C  C460  1  0.49167000  0.18088000  0.81489000  1
  C  C461  1  0.46598000  0.29990000  0.76405000  1
  C  C462  1  0.44974000  0.34953000  0.77072000  1
  C  C463  1  0.44800000  0.38241000  0.72964000  1
  C  C464  1  0.46250000  0.36565000  0.68189000  1
  C  C465  1  0.47874000  0.31602000  0.67521000  1
  C  C466  1  0.48719000  0.14020000  0.89911000  1
  C  C467  1  0.46068000  0.40029000  0.63860000  1
  C  C468  1  0.96765000  0.23186000  0.19626000  1
  C  C469  1  0.95644000  0.22840000  0.14494000  1
  C  C470  1  0.96284000  0.27029000  0.11370000  1
  C  C471  1  0.98045000  0.31566000  0.13379000  1
  C  C472  1  0.99167000  0.31912000  0.18511000  1
  C  C473  1  0.96598000  0.20010000  0.23595000  1
  C  C474  1  0.94974000  0.15047000  0.22928000  1
  C  C475  1  0.94800000  0.11759000  0.27036000  1
  C  C476  1  0.96250000  0.13435000  0.31811000  1
  C  C477  1  0.97874000  0.18398000  0.32479000  1
  C  C478  1  0.98719000  0.35980000  0.10089000  1
  C  C479  1  0.96068000  0.09971000  0.36140000  1
  N  N480  1  0.28443000  0.48543000  0.27827000  1
  N  N481  1  0.21528000  0.48044000  0.21604000  1
  N  N482  1  0.21557000  0.51457000  0.77827000  1
  N  N483  1  0.28472000  0.51956000  0.71604000  1
  N  N484  1  0.78443000  0.01457000  0.72173000  1
  N  N485  1  0.71528000  0.01956000  0.78396000  1
  N  N486  1  0.71557000  0.98543000  0.22173000  1
  N  N487  1  0.78472000  0.98044000  0.28396000  1
  N  N488  1  0.27827000  0.28443000  0.48543000  1
  N  N489  1  0.21604000  0.21528000  0.48044000  1
  N  N490  1  0.22173000  0.71557000  0.98543000  1
  N  N491  1  0.28396000  0.78472000  0.98044000  1
  N  N492  1  0.77827000  0.21557000  0.51457000  1
  N  N493  1  0.71604000  0.28472000  0.51956000  1
  N  N494  1  0.72173000  0.78443000  0.01457000  1
  N  N495  1  0.78396000  0.71528000  0.01956000  1
  N  N496  1  0.48543000  0.27827000  0.28443000  1
  N  N497  1  0.48044000  0.21604000  0.21528000  1
  N  N498  1  0.98543000  0.22173000  0.71557000  1
  N  N499  1  0.98044000  0.28396000  0.78472000  1
  N  N500  1  0.51457000  0.77827000  0.21557000  1
  N  N501  1  0.51956000  0.71604000  0.28472000  1
  N  N502  1  0.01457000  0.72173000  0.78443000  1
  N  N503  1  0.01956000  0.78396000  0.71528000  1
  N  N504  1  0.71557000  0.51457000  0.72173000  1
  N  N505  1  0.78472000  0.51956000  0.78396000  1
  N  N506  1  0.78443000  0.48543000  0.22173000  1
  N  N507  1  0.71528000  0.48044000  0.28396000  1
  N  N508  1  0.21557000  0.98543000  0.27827000  1
  N  N509  1  0.28472000  0.98044000  0.21604000  1
  N  N510  1  0.28443000  0.01457000  0.77827000  1
  N  N511  1  0.21528000  0.01956000  0.71604000  1
  N  N512  1  0.72173000  0.71557000  0.51457000  1
  N  N513  1  0.78396000  0.78472000  0.51956000  1
  N  N514  1  0.77827000  0.28443000  0.01457000  1
  N  N515  1  0.71604000  0.21528000  0.01956000  1
  N  N516  1  0.22173000  0.78443000  0.48543000  1
  N  N517  1  0.28396000  0.71528000  0.48044000  1
  N  N518  1  0.27827000  0.21557000  0.98543000  1
  N  N519  1  0.21604000  0.28472000  0.98044000  1
  N  N520  1  0.51457000  0.72173000  0.71557000  1
  N  N521  1  0.51956000  0.78396000  0.78472000  1
  N  N522  1  0.01457000  0.77827000  0.28443000  1
  N  N523  1  0.01956000  0.71604000  0.21528000  1
  N  N524  1  0.48543000  0.22173000  0.78443000  1
  N  N525  1  0.48044000  0.28396000  0.71528000  1
  N  N526  1  0.98543000  0.27827000  0.21557000  1
  N  N527  1  0.98044000  0.21604000  0.28472000  1
  Cl  Cl528  1  0.14490000  0.53310000  0.28990000  1
  Cl  Cl529  1  0.20280000  0.46220000  0.36575000  1
  Cl  Cl530  1  0.35510000  0.46690000  0.78990000  1
  Cl  Cl531  1  0.29720000  0.53780000  0.86575000  1
  Cl  Cl532  1  0.64490000  0.96690000  0.71010000  1
  Cl  Cl533  1  0.70280000  0.03780000  0.63425000  1
  Cl  Cl534  1  0.85510000  0.03310000  0.21010000  1
  Cl  Cl535  1  0.79720000  0.96220000  0.13425000  1
  Cl  Cl536  1  0.28990000  0.14490000  0.53310000  1
  Cl  Cl537  1  0.36575000  0.20280000  0.46220000  1
  Cl  Cl538  1  0.21010000  0.85510000  0.03310000  1
  Cl  Cl539  1  0.13425000  0.79720000  0.96220000  1
  Cl  Cl540  1  0.78990000  0.35510000  0.46690000  1
  Cl  Cl541  1  0.86575000  0.29720000  0.53780000  1
  Cl  Cl542  1  0.71010000  0.64490000  0.96690000  1
  Cl  Cl543  1  0.63425000  0.70280000  0.03780000  1
  Cl  Cl544  1  0.53310000  0.28990000  0.14490000  1
  Cl  Cl545  1  0.46220000  0.36575000  0.20280000  1
  Cl  Cl546  1  0.03310000  0.21010000  0.85510000  1
  Cl  Cl547  1  0.96220000  0.13425000  0.79720000  1
  Cl  Cl548  1  0.46690000  0.78990000  0.35510000  1
  Cl  Cl549  1  0.53780000  0.86575000  0.29720000  1
  Cl  Cl550  1  0.96690000  0.71010000  0.64490000  1
  Cl  Cl551  1  0.03780000  0.63425000  0.70280000  1
  Cl  Cl552  1  0.85510000  0.46690000  0.71010000  1
  Cl  Cl553  1  0.79720000  0.53780000  0.63425000  1
  Cl  Cl554  1  0.64490000  0.53310000  0.21010000  1
  Cl  Cl555  1  0.70280000  0.46220000  0.13425000  1
  Cl  Cl556  1  0.35510000  0.03310000  0.28990000  1
  Cl  Cl557  1  0.29720000  0.96220000  0.36575000  1
  Cl  Cl558  1  0.14490000  0.96690000  0.78990000  1
  Cl  Cl559  1  0.20280000  0.03780000  0.86575000  1
  Cl  Cl560  1  0.71010000  0.85510000  0.46690000  1
  Cl  Cl561  1  0.63425000  0.79720000  0.53780000  1
  Cl  Cl562  1  0.78990000  0.14490000  0.96690000  1
  Cl  Cl563  1  0.86575000  0.20280000  0.03780000  1
  Cl  Cl564  1  0.21010000  0.64490000  0.53310000  1
  Cl  Cl565  1  0.13425000  0.70280000  0.46220000  1
  Cl  Cl566  1  0.28990000  0.35510000  0.03310000  1
  Cl  Cl567  1  0.36575000  0.29720000  0.96220000  1
  Cl  Cl568  1  0.46690000  0.71010000  0.85510000  1
  Cl  Cl569  1  0.53780000  0.63425000  0.79720000  1
  Cl  Cl570  1  0.96690000  0.78990000  0.14490000  1
  Cl  Cl571  1  0.03780000  0.86575000  0.20280000  1
  Cl  Cl572  1  0.53310000  0.21010000  0.64490000  1
  Cl  Cl573  1  0.46220000  0.13425000  0.70280000  1
  Cl  Cl574  1  0.03310000  0.28990000  0.35510000  1
  Cl  Cl575  1  0.96220000  0.36575000  0.29720000  1
  O  O576  1  0.38058000  0.50351000  0.40166000  1
  O  O577  1  0.55356000  0.43032000  0.47171000  1
  O  O578  1  0.45200000  0.49460000  0.35300000  1
  O  O579  1  0.08700000  0.46450000  0.13020000  1
  O  O580  1  0.15390000  0.46850000  0.04210000  1
  O  O581  1  0.44610000  0.44610000  0.44610000  1
  O  O582  1  0.11942000  0.49649000  0.90166000  1
  O  O583  1  0.94644000  0.56968000  0.97171000  1
  O  O584  1  0.04800000  0.50540000  0.85300000  1
  O  O585  1  0.41300000  0.53550000  0.63020000  1
  O  O586  1  0.34610000  0.53150000  0.54210000  1
  O  O587  1  0.05390000  0.55390000  0.94610000  1
  O  O588  1  0.88058000  0.99649000  0.59834000  1
  O  O589  1  0.05356000  0.06968000  0.52829000  1
  O  O590  1  0.95200000  0.00540000  0.64700000  1
  O  O591  1  0.58700000  0.03550000  0.86980000  1
  O  O592  1  0.65390000  0.03150000  0.95790000  1
  O  O593  1  0.94610000  0.05390000  0.55390000  1
  O  O594  1  0.61942000  0.00351000  0.09834000  1
  O  O595  1  0.44644000  0.93032000  0.02829000  1
  O  O596  1  0.54800000  0.99460000  0.14700000  1
  O  O597  1  0.91300000  0.96450000  0.36980000  1
  O  O598  1  0.84610000  0.96850000  0.45790000  1
  O  O599  1  0.55390000  0.94610000  0.05390000  1
  O  O600  1  0.40166000  0.38058000  0.50351000  1
  O  O601  1  0.47171000  0.55356000  0.43032000  1
  O  O602  1  0.35300000  0.45200000  0.49460000  1
  O  O603  1  0.13020000  0.08700000  0.46450000  1
  O  O604  1  0.04210000  0.15390000  0.46850000  1
  O  O605  1  0.09834000  0.61942000  0.00351000  1
  O  O606  1  0.02829000  0.44644000  0.93032000  1
  O  O607  1  0.14700000  0.54800000  0.99460000  1
  O  O608  1  0.36980000  0.91300000  0.96450000  1
  O  O609  1  0.45790000  0.84610000  0.96850000  1
  O  O610  1  0.90166000  0.11942000  0.49649000  1
  O  O611  1  0.97171000  0.94644000  0.56968000  1
  O  O612  1  0.85300000  0.04800000  0.50540000  1
  O  O613  1  0.63020000  0.41300000  0.53550000  1
  O  O614  1  0.54210000  0.34610000  0.53150000  1
  O  O615  1  0.59834000  0.88058000  0.99649000  1
  O  O616  1  0.52829000  0.05356000  0.06968000  1
  O  O617  1  0.64700000  0.95200000  0.00540000  1
  O  O618  1  0.86980000  0.58700000  0.03550000  1
  O  O619  1  0.95790000  0.65390000  0.03150000  1
  O  O620  1  0.50351000  0.40166000  0.38058000  1
  O  O621  1  0.43032000  0.47171000  0.55356000  1
  O  O622  1  0.49460000  0.35300000  0.45200000  1
  O  O623  1  0.46450000  0.13020000  0.08700000  1
  O  O624  1  0.46850000  0.04210000  0.15390000  1
  O  O625  1  0.00351000  0.09834000  0.61942000  1
  O  O626  1  0.93032000  0.02829000  0.44644000  1
  O  O627  1  0.99460000  0.14700000  0.54800000  1
  O  O628  1  0.96450000  0.36980000  0.91300000  1
  O  O629  1  0.96850000  0.45790000  0.84610000  1
  O  O630  1  0.49649000  0.90166000  0.11942000  1
  O  O631  1  0.56968000  0.97171000  0.94644000  1
  O  O632  1  0.50540000  0.85300000  0.04800000  1
  O  O633  1  0.53550000  0.63020000  0.41300000  1
  O  O634  1  0.53150000  0.54210000  0.34610000  1
  O  O635  1  0.99649000  0.59834000  0.88058000  1
  O  O636  1  0.06968000  0.52829000  0.05356000  1
  O  O637  1  0.00540000  0.64700000  0.95200000  1
  O  O638  1  0.03550000  0.86980000  0.58700000  1
  O  O639  1  0.03150000  0.95790000  0.65390000  1
  O  O640  1  0.61942000  0.49649000  0.59834000  1
  O  O641  1  0.44644000  0.56968000  0.52829000  1
  O  O642  1  0.54800000  0.50540000  0.64700000  1
  O  O643  1  0.91300000  0.53550000  0.86980000  1
  O  O644  1  0.84610000  0.53150000  0.95790000  1
  O  O645  1  0.55390000  0.55390000  0.55390000  1
  O  O646  1  0.88058000  0.50351000  0.09834000  1
  O  O647  1  0.05356000  0.43032000  0.02829000  1
  O  O648  1  0.95200000  0.49460000  0.14700000  1
  O  O649  1  0.58700000  0.46450000  0.36980000  1
  O  O650  1  0.65390000  0.46850000  0.45790000  1
  O  O651  1  0.94610000  0.44610000  0.05390000  1
  O  O652  1  0.11942000  0.00351000  0.40166000  1
  O  O653  1  0.94644000  0.93032000  0.47171000  1
  O  O654  1  0.04800000  0.99460000  0.35300000  1
  O  O655  1  0.41300000  0.96450000  0.13020000  1
  O  O656  1  0.34610000  0.96850000  0.04210000  1
  O  O657  1  0.05390000  0.94610000  0.44610000  1
  O  O658  1  0.38058000  0.99649000  0.90166000  1
  O  O659  1  0.55356000  0.06968000  0.97171000  1
  O  O660  1  0.45200000  0.00540000  0.85300000  1
  O  O661  1  0.08700000  0.03550000  0.63020000  1
  O  O662  1  0.15390000  0.03150000  0.54210000  1
  O  O663  1  0.44610000  0.05390000  0.94610000  1
  O  O664  1  0.59834000  0.61942000  0.49649000  1
  O  O665  1  0.52829000  0.44644000  0.56968000  1
  O  O666  1  0.64700000  0.54800000  0.50540000  1
  O  O667  1  0.86980000  0.91300000  0.53550000  1
  O  O668  1  0.95790000  0.84610000  0.53150000  1
  O  O669  1  0.90166000  0.38058000  0.99649000  1
  O  O670  1  0.97171000  0.55356000  0.06968000  1
  O  O671  1  0.85300000  0.45200000  0.00540000  1
  O  O672  1  0.63020000  0.08700000  0.03550000  1
  O  O673  1  0.54210000  0.15390000  0.03150000  1
  O  O674  1  0.09834000  0.88058000  0.50351000  1
  O  O675  1  0.02829000  0.05356000  0.43032000  1
  O  O676  1  0.14700000  0.95200000  0.49460000  1
  O  O677  1  0.36980000  0.58700000  0.46450000  1
  O  O678  1  0.45790000  0.65390000  0.46850000  1
  O  O679  1  0.40166000  0.11942000  0.00351000  1
  O  O680  1  0.47171000  0.94644000  0.93032000  1
  O  O681  1  0.35300000  0.04800000  0.99460000  1
  O  O682  1  0.13020000  0.41300000  0.96450000  1
  O  O683  1  0.04210000  0.34610000  0.96850000  1
  O  O684  1  0.49649000  0.59834000  0.61942000  1
  O  O685  1  0.56968000  0.52829000  0.44644000  1
  O  O686  1  0.50540000  0.64700000  0.54800000  1
  O  O687  1  0.53550000  0.86980000  0.91300000  1
  O  O688  1  0.53150000  0.95790000  0.84610000  1
  O  O689  1  0.99649000  0.90166000  0.38058000  1
  O  O690  1  0.06968000  0.97171000  0.55356000  1
  O  O691  1  0.00540000  0.85300000  0.45200000  1
  O  O692  1  0.03550000  0.63020000  0.08700000  1
  O  O693  1  0.03150000  0.54210000  0.15390000  1
  O  O694  1  0.50351000  0.09834000  0.88058000  1
  O  O695  1  0.43032000  0.02829000  0.05356000  1
  O  O696  1  0.49460000  0.14700000  0.95200000  1
  O  O697  1  0.46450000  0.36980000  0.58700000  1
  O  O698  1  0.46850000  0.45790000  0.65390000  1
  O  O699  1  0.00351000  0.40166000  0.11942000  1
  O  O700  1  0.93032000  0.47171000  0.94644000  1
  O  O701  1  0.99460000  0.35300000  0.04800000  1
  O  O702  1  0.96450000  0.13020000  0.41300000  1
  O  O703  1  0.96850000  0.04210000  0.34610000  1
