# generated using pymatgen
data_Zr3H12C36(N3O8)2
_symmetry_space_group_name_H-M   'P 1'
_cell_length_a   18.75247184
_cell_length_b   18.75247184
_cell_length_c   18.75247184
_cell_angle_alpha   60.00000000
_cell_angle_beta   60.00000000
_cell_angle_gamma   60.00000000
_symmetry_Int_Tables_number   1
_chemical_formula_structural   Zr3H12C36(N3O8)2
_chemical_formula_sum   'Zr6 H24 C72 N12 O32'
_cell_volume   4662.94795200
_cell_formula_units_Z   2
loop_
 _symmetry_equiv_pos_site_id
 _symmetry_equiv_pos_as_xyz
  1  'x, y, z'
loop_
 _atom_site_type_symbol
 _atom_site_label
 _atom_site_symmetry_multiplicity
 _atom_site_fract_x
 _atom_site_fract_y
 _atom_site_fract_z
 _atom_site_occupancy
  C  C0  1  0.85290000  0.43770000  0.14710000  1
  C  C1  1  0.92543000  0.43699000  0.07457000  1
  C  C2  1  0.73626000  0.50000000  0.26374000  1
  C  C3  1  0.81576000  0.50000000  0.18424000  1
  C  C4  1  0.95946000  0.50000000  0.04054000  1
  C  C5  1  0.85290000  0.14710000  0.43770000  1
  C  C6  1  0.92543000  0.07457000  0.43699000  1
  C  C7  1  0.73626000  0.26374000  0.50000000  1
  C  C8  1  0.81576000  0.18424000  0.50000000  1
  C  C9  1  0.95946000  0.04054000  0.50000000  1
  C  C10  1  0.56230000  0.14710000  0.43770000  1
  C  C11  1  0.56301000  0.07457000  0.43699000  1
  C  C12  1  0.50000000  0.26374000  0.50000000  1
  C  C13  1  0.50000000  0.18424000  0.50000000  1
  C  C14  1  0.50000000  0.04054000  0.50000000  1
  C  C15  1  0.56230000  0.43770000  0.14710000  1
  C  C16  1  0.56301000  0.43699000  0.07457000  1
  C  C17  1  0.50000000  0.50000000  0.26374000  1
  C  C18  1  0.50000000  0.50000000  0.18424000  1
  C  C19  1  0.50000000  0.50000000  0.04054000  1
  C  C20  1  0.43770000  0.85290000  0.56230000  1
  C  C21  1  0.43699000  0.92543000  0.56301000  1
  C  C22  1  0.50000000  0.73626000  0.50000000  1
  C  C23  1  0.50000000  0.81576000  0.50000000  1
  C  C24  1  0.50000000  0.95946000  0.50000000  1
  C  C25  1  0.43770000  0.56230000  0.85290000  1
  C  C26  1  0.43699000  0.56301000  0.92543000  1
  C  C27  1  0.50000000  0.50000000  0.73626000  1
  C  C28  1  0.50000000  0.50000000  0.81576000  1
  C  C29  1  0.50000000  0.50000000  0.95946000  1
  C  C30  1  0.14710000  0.56230000  0.85290000  1
  C  C31  1  0.07457000  0.56301000  0.92543000  1
  C  C32  1  0.26374000  0.50000000  0.73626000  1
  C  C33  1  0.18424000  0.50000000  0.81576000  1
  C  C34  1  0.04054000  0.50000000  0.95946000  1
  C  C35  1  0.14710000  0.85290000  0.56230000  1
  C  C36  1  0.07457000  0.92543000  0.56301000  1
  C  C37  1  0.26374000  0.73626000  0.50000000  1
  C  C38  1  0.18424000  0.81576000  0.50000000  1
  C  C39  1  0.04054000  0.95946000  0.50000000  1
  C  C40  1  0.43770000  0.14710000  0.85290000  1
  C  C41  1  0.43699000  0.07457000  0.92543000  1
  C  C42  1  0.50000000  0.26374000  0.73626000  1
  C  C43  1  0.50000000  0.18424000  0.81576000  1
  C  C44  1  0.50000000  0.04054000  0.95946000  1
  C  C45  1  0.14710000  0.56230000  0.43770000  1
  C  C46  1  0.07457000  0.56301000  0.43699000  1
  C  C47  1  0.26374000  0.50000000  0.50000000  1
  C  C48  1  0.18424000  0.50000000  0.50000000  1
  C  C49  1  0.04054000  0.50000000  0.50000000  1
  C  C50  1  0.56230000  0.85290000  0.14710000  1
  C  C51  1  0.56301000  0.92543000  0.07457000  1
  C  C52  1  0.50000000  0.73626000  0.26374000  1
  C  C53  1  0.50000000  0.81576000  0.18424000  1
  C  C54  1  0.50000000  0.95946000  0.04054000  1
  C  C55  1  0.85290000  0.43770000  0.56230000  1
  C  C56  1  0.92543000  0.43699000  0.56301000  1
  C  C57  1  0.73626000  0.50000000  0.50000000  1
  C  C58  1  0.81576000  0.50000000  0.50000000  1
  C  C59  1  0.95946000  0.50000000  0.50000000  1
  C  C60  1  0.14710000  0.43770000  0.56230000  1
  C  C61  1  0.43770000  0.85290000  0.14710000  1
  C  C62  1  0.85290000  0.56230000  0.43770000  1
  C  C63  1  0.56230000  0.14710000  0.85290000  1
  C  C64  1  0.14710000  0.85290000  0.43770000  1
  C  C65  1  0.85290000  0.14710000  0.56230000  1
  C  C66  1  0.43770000  0.14710000  0.56230000  1
  C  C67  1  0.43770000  0.56230000  0.14710000  1
  C  C68  1  0.85290000  0.56230000  0.14710000  1
  C  C69  1  0.56230000  0.43770000  0.85290000  1
  C  C70  1  0.14710000  0.43770000  0.85290000  1
  C  C71  1  0.56230000  0.85290000  0.43770000  1
  H  H72  1  0.82770000  0.39370000  0.17230000  1
  H  H73  1  0.82770000  0.17230000  0.39370000  1
  H  H74  1  0.60630000  0.17230000  0.39370000  1
  H  H75  1  0.60630000  0.39370000  0.17230000  1
  H  H76  1  0.39370000  0.82770000  0.60630000  1
  H  H77  1  0.39370000  0.60630000  0.82770000  1
  H  H78  1  0.17230000  0.60630000  0.82770000  1
  H  H79  1  0.17230000  0.82770000  0.60630000  1
  H  H80  1  0.39370000  0.17230000  0.82770000  1
  H  H81  1  0.17230000  0.60630000  0.39370000  1
  H  H82  1  0.60630000  0.82770000  0.17230000  1
  H  H83  1  0.82770000  0.39370000  0.60630000  1
  H  H84  1  0.17230000  0.39370000  0.60630000  1
  H  H85  1  0.39370000  0.82770000  0.17230000  1
  H  H86  1  0.82770000  0.60630000  0.39370000  1
  H  H87  1  0.60630000  0.17230000  0.82770000  1
  H  H88  1  0.17230000  0.82770000  0.39370000  1
  H  H89  1  0.82770000  0.17230000  0.60630000  1
  H  H90  1  0.39370000  0.17230000  0.60630000  1
  H  H91  1  0.39370000  0.60630000  0.17230000  1
  H  H92  1  0.82770000  0.60630000  0.17230000  1
  H  H93  1  0.60630000  0.39370000  0.82770000  1
  H  H94  1  0.17230000  0.39370000  0.82770000  1
  H  H95  1  0.60630000  0.82770000  0.39370000  1
  N  N96  1  0.07457000  0.43699000  0.92543000  1
  N  N97  1  0.07457000  0.92543000  0.43699000  1
  N  N98  1  0.56301000  0.92543000  0.43699000  1
  N  N99  1  0.56301000  0.43699000  0.92543000  1
  N  N100  1  0.43699000  0.07457000  0.56301000  1
  N  N101  1  0.43699000  0.56301000  0.07457000  1
  N  N102  1  0.92543000  0.56301000  0.07457000  1
  N  N103  1  0.92543000  0.07457000  0.56301000  1
  N  N104  1  0.43699000  0.92543000  0.07457000  1
  N  N105  1  0.92543000  0.56301000  0.43699000  1
  N  N106  1  0.56301000  0.07457000  0.92543000  1
  N  N107  1  0.07457000  0.43699000  0.56301000  1
  O  O108  1  0.70670000  0.43944000  0.29330000  1
  O  O109  1  0.66050000  0.44650000  0.44650000  1
  O  O110  1  0.70670000  0.29330000  0.43944000  1
  O  O111  1  0.55350000  0.33950000  0.55350000  1
  O  O112  1  0.56056000  0.29330000  0.43944000  1
  O  O113  1  0.44650000  0.44650000  0.44650000  1
  O  O114  1  0.56056000  0.43944000  0.29330000  1
  O  O115  1  0.55350000  0.55350000  0.33950000  1
  O  O116  1  0.43944000  0.70670000  0.56056000  1
  O  O117  1  0.44650000  0.66050000  0.44650000  1
  O  O118  1  0.43944000  0.56056000  0.70670000  1
  O  O119  1  0.55350000  0.55350000  0.55350000  1
  O  O120  1  0.29330000  0.56056000  0.70670000  1
  O  O121  1  0.44650000  0.44650000  0.66050000  1
  O  O122  1  0.29330000  0.70670000  0.56056000  1
  O  O123  1  0.33950000  0.55350000  0.55350000  1
  O  O124  1  0.43944000  0.29330000  0.70670000  1
  O  O125  1  0.29330000  0.56056000  0.43944000  1
  O  O126  1  0.56056000  0.70670000  0.29330000  1
  O  O127  1  0.70670000  0.43944000  0.56056000  1
  O  O128  1  0.29330000  0.43944000  0.56056000  1
  O  O129  1  0.43944000  0.70670000  0.29330000  1
  O  O130  1  0.70670000  0.56056000  0.43944000  1
  O  O131  1  0.56056000  0.29330000  0.70670000  1
  O  O132  1  0.29330000  0.70670000  0.43944000  1
  O  O133  1  0.70670000  0.29330000  0.56056000  1
  O  O134  1  0.43944000  0.29330000  0.56056000  1
  O  O135  1  0.43944000  0.56056000  0.29330000  1
  O  O136  1  0.70670000  0.56056000  0.29330000  1
  O  O137  1  0.56056000  0.43944000  0.70670000  1
  O  O138  1  0.29330000  0.43944000  0.70670000  1
  O  O139  1  0.56056000  0.70670000  0.43944000  1
  Zr  Zr140  1  0.59320000  0.40680000  0.40680000  1
  Zr  Zr141  1  0.40680000  0.59320000  0.59320000  1
  Zr  Zr142  1  0.40680000  0.40680000  0.59320000  1
  Zr  Zr143  1  0.40680000  0.59320000  0.40680000  1
  Zr  Zr144  1  0.59320000  0.59320000  0.40680000  1
  Zr  Zr145  1  0.59320000  0.40680000  0.59320000  1
