# generated using pymatgen
data_Zr3Fe3H18C38Br6N7O16
_symmetry_space_group_name_H-M   'P 1'
_cell_length_a   26.25500000
_cell_length_b   26.25500000
_cell_length_c   26.25500000
_cell_angle_alpha   90.00000000
_cell_angle_beta   90.00000000
_cell_angle_gamma   90.00000000
_symmetry_Int_Tables_number   1
_chemical_formula_structural   Zr3Fe3H18C38Br6N7O16
_chemical_formula_sum   'Zr24 Fe24 H144 C304 Br48 N56 O128'
_cell_volume   18098.22853137
_cell_formula_units_Z   8
loop_
 _symmetry_equiv_pos_site_id
 _symmetry_equiv_pos_as_xyz
  1  'x, y, z'
loop_
 _atom_site_type_symbol
 _atom_site_label
 _atom_site_symmetry_multiplicity
 _atom_site_fract_x
 _atom_site_fract_y
 _atom_site_fract_z
 _atom_site_occupancy
  Zr  Zr0  1  0.51192000  0.51385000  0.09265000  1
  Zr  Zr1  1  0.98808000  0.48615000  0.59265000  1
  Zr  Zr2  1  0.01192000  0.98615000  0.90735000  1
  Zr  Zr3  1  0.48808000  0.01385000  0.40735000  1
  Zr  Zr4  1  0.09265000  0.51192000  0.51385000  1
  Zr  Zr5  1  0.40735000  0.48808000  0.01385000  1
  Zr  Zr6  1  0.59265000  0.98808000  0.48615000  1
  Zr  Zr7  1  0.90735000  0.01192000  0.98615000  1
  Zr  Zr8  1  0.51385000  0.09265000  0.51192000  1
  Zr  Zr9  1  0.01385000  0.40735000  0.48808000  1
  Zr  Zr10  1  0.48615000  0.59265000  0.98808000  1
  Zr  Zr11  1  0.98615000  0.90735000  0.01192000  1
  Zr  Zr12  1  0.48808000  0.48615000  0.90735000  1
  Zr  Zr13  1  0.01192000  0.51385000  0.40735000  1
  Zr  Zr14  1  0.98808000  0.01385000  0.09265000  1
  Zr  Zr15  1  0.51192000  0.98615000  0.59265000  1
  Zr  Zr16  1  0.90735000  0.48808000  0.48615000  1
  Zr  Zr17  1  0.59265000  0.51192000  0.98615000  1
  Zr  Zr18  1  0.40735000  0.01192000  0.51385000  1
  Zr  Zr19  1  0.09265000  0.98808000  0.01385000  1
  Zr  Zr20  1  0.48615000  0.90735000  0.48808000  1
  Zr  Zr21  1  0.98615000  0.59265000  0.51192000  1
  Zr  Zr22  1  0.51385000  0.40735000  0.01192000  1
  Zr  Zr23  1  0.01385000  0.09265000  0.98808000  1
  Fe  Fe24  1  0.69656000  0.51619000  0.30068000  1
  Fe  Fe25  1  0.80344000  0.48381000  0.80068000  1
  Fe  Fe26  1  0.19656000  0.98381000  0.69932000  1
  Fe  Fe27  1  0.30344000  0.01619000  0.19932000  1
  Fe  Fe28  1  0.30068000  0.69656000  0.51619000  1
  Fe  Fe29  1  0.19932000  0.30344000  0.01619000  1
  Fe  Fe30  1  0.80068000  0.80344000  0.48381000  1
  Fe  Fe31  1  0.69932000  0.19656000  0.98381000  1
  Fe  Fe32  1  0.51619000  0.30068000  0.69656000  1
  Fe  Fe33  1  0.01619000  0.19932000  0.30344000  1
  Fe  Fe34  1  0.48381000  0.80068000  0.80344000  1
  Fe  Fe35  1  0.98381000  0.69932000  0.19656000  1
  Fe  Fe36  1  0.30344000  0.48381000  0.69932000  1
  Fe  Fe37  1  0.19656000  0.51619000  0.19932000  1
  Fe  Fe38  1  0.80344000  0.01619000  0.30068000  1
  Fe  Fe39  1  0.69656000  0.98381000  0.80068000  1
  Fe  Fe40  1  0.69932000  0.30344000  0.48381000  1
  Fe  Fe41  1  0.80068000  0.69656000  0.98381000  1
  Fe  Fe42  1  0.19932000  0.19656000  0.51619000  1
  Fe  Fe43  1  0.30068000  0.80344000  0.01619000  1
  Fe  Fe44  1  0.48381000  0.69932000  0.30344000  1
  Fe  Fe45  1  0.98381000  0.80068000  0.69656000  1
  Fe  Fe46  1  0.51619000  0.19932000  0.19656000  1
  Fe  Fe47  1  0.01619000  0.30068000  0.80344000  1
  H  H48  1  0.79700000  0.55760000  0.14550000  1
  H  H49  1  0.73240000  0.55130000  0.08480000  1
  H  H50  1  0.63480000  0.52950000  0.20070000  1
  H  H51  1  0.85680000  0.54680000  0.20270000  1
  H  H52  1  0.91460000  0.53620000  0.26840000  1
  H  H53  1  0.79720000  0.49980000  0.36050000  1
  H  H54  1  0.70300000  0.44240000  0.64550000  1
  H  H55  1  0.76760000  0.44870000  0.58480000  1
  H  H56  1  0.86520000  0.47050000  0.70070000  1
  H  H57  1  0.64320000  0.45320000  0.70270000  1
  H  H58  1  0.58540000  0.46380000  0.76840000  1
  H  H59  1  0.70280000  0.50020000  0.86050000  1
  H  H60  1  0.29700000  0.94240000  0.85450000  1
  H  H61  1  0.23240000  0.94870000  0.91520000  1
  H  H62  1  0.13480000  0.97050000  0.79930000  1
  H  H63  1  0.35680000  0.95320000  0.79730000  1
  H  H64  1  0.41460000  0.96380000  0.73160000  1
  H  H65  1  0.29720000  0.00020000  0.63950000  1
  H  H66  1  0.20300000  0.05760000  0.35450000  1
  H  H67  1  0.26760000  0.05130000  0.41520000  1
  H  H68  1  0.36520000  0.02950000  0.29930000  1
  H  H69  1  0.14320000  0.04680000  0.29730000  1
  H  H70  1  0.08540000  0.03620000  0.23160000  1
  H  H71  1  0.20280000  0.99980000  0.13950000  1
  H  H72  1  0.14550000  0.79700000  0.55760000  1
  H  H73  1  0.08480000  0.73240000  0.55130000  1
  H  H74  1  0.20070000  0.63480000  0.52950000  1
  H  H75  1  0.20270000  0.85680000  0.54680000  1
  H  H76  1  0.26840000  0.91460000  0.53620000  1
  H  H77  1  0.36050000  0.79720000  0.49980000  1
  H  H78  1  0.35450000  0.20300000  0.05760000  1
  H  H79  1  0.41520000  0.26760000  0.05130000  1
  H  H80  1  0.29930000  0.36520000  0.02950000  1
  H  H81  1  0.29730000  0.14320000  0.04680000  1
  H  H82  1  0.23160000  0.08540000  0.03620000  1
  H  H83  1  0.13950000  0.20280000  0.99980000  1
  H  H84  1  0.64550000  0.70300000  0.44240000  1
  H  H85  1  0.58480000  0.76760000  0.44870000  1
  H  H86  1  0.70070000  0.86520000  0.47050000  1
  H  H87  1  0.70270000  0.64320000  0.45320000  1
  H  H88  1  0.76840000  0.58540000  0.46380000  1
  H  H89  1  0.86050000  0.70280000  0.50020000  1
  H  H90  1  0.85450000  0.29700000  0.94240000  1
  H  H91  1  0.91520000  0.23240000  0.94870000  1
  H  H92  1  0.79930000  0.13480000  0.97050000  1
  H  H93  1  0.79730000  0.35680000  0.95320000  1
  H  H94  1  0.73160000  0.41460000  0.96380000  1
  H  H95  1  0.63950000  0.29720000  0.00020000  1
  H  H96  1  0.55760000  0.14550000  0.79700000  1
  H  H97  1  0.55130000  0.08480000  0.73240000  1
  H  H98  1  0.52950000  0.20070000  0.63480000  1
  H  H99  1  0.54680000  0.20270000  0.85680000  1
  H  H100  1  0.53620000  0.26840000  0.91460000  1
  H  H101  1  0.49980000  0.36050000  0.79720000  1
  H  H102  1  0.05760000  0.35450000  0.20300000  1
  H  H103  1  0.05130000  0.41520000  0.26760000  1
  H  H104  1  0.02950000  0.29930000  0.36520000  1
  H  H105  1  0.04680000  0.29730000  0.14320000  1
  H  H106  1  0.03620000  0.23160000  0.08540000  1
  H  H107  1  0.99980000  0.13950000  0.20280000  1
  H  H108  1  0.44240000  0.64550000  0.70300000  1
  H  H109  1  0.44870000  0.58480000  0.76760000  1
  H  H110  1  0.47050000  0.70070000  0.86520000  1
  H  H111  1  0.45320000  0.70270000  0.64320000  1
  H  H112  1  0.46380000  0.76840000  0.58540000  1
  H  H113  1  0.50020000  0.86050000  0.70280000  1
  H  H114  1  0.94240000  0.85450000  0.29700000  1
  H  H115  1  0.94870000  0.91520000  0.23240000  1
  H  H116  1  0.97050000  0.79930000  0.13480000  1
  H  H117  1  0.95320000  0.79730000  0.35680000  1
  H  H118  1  0.96380000  0.73160000  0.41460000  1
  H  H119  1  0.00020000  0.63950000  0.29720000  1
  H  H120  1  0.20300000  0.44240000  0.85450000  1
  H  H121  1  0.26760000  0.44870000  0.91520000  1
  H  H122  1  0.36520000  0.47050000  0.79930000  1
  H  H123  1  0.14320000  0.45320000  0.79730000  1
  H  H124  1  0.08540000  0.46380000  0.73160000  1
  H  H125  1  0.20280000  0.50020000  0.63950000  1
  H  H126  1  0.29700000  0.55760000  0.35450000  1
  H  H127  1  0.23240000  0.55130000  0.41520000  1
  H  H128  1  0.13480000  0.52950000  0.29930000  1
  H  H129  1  0.35680000  0.54680000  0.29730000  1
  H  H130  1  0.41460000  0.53620000  0.23160000  1
  H  H131  1  0.29720000  0.49980000  0.13950000  1
  H  H132  1  0.70300000  0.05760000  0.14550000  1
  H  H133  1  0.76760000  0.05130000  0.08480000  1
  H  H134  1  0.86520000  0.02950000  0.20070000  1
  H  H135  1  0.64320000  0.04680000  0.20270000  1
  H  H136  1  0.58540000  0.03620000  0.26840000  1
  H  H137  1  0.70280000  0.99980000  0.36050000  1
  H  H138  1  0.79700000  0.94240000  0.64550000  1
  H  H139  1  0.73240000  0.94870000  0.58480000  1
  H  H140  1  0.63480000  0.97050000  0.70070000  1
  H  H141  1  0.85680000  0.95320000  0.70270000  1
  H  H142  1  0.91460000  0.96380000  0.76840000  1
  H  H143  1  0.79720000  0.00020000  0.86050000  1
  H  H144  1  0.85450000  0.20300000  0.44240000  1
  H  H145  1  0.91520000  0.26760000  0.44870000  1
  H  H146  1  0.79930000  0.36520000  0.47050000  1
  H  H147  1  0.79730000  0.14320000  0.45320000  1
  H  H148  1  0.73160000  0.08540000  0.46380000  1
  H  H149  1  0.63950000  0.20280000  0.50020000  1
  H  H150  1  0.64550000  0.79700000  0.94240000  1
  H  H151  1  0.58480000  0.73240000  0.94870000  1
  H  H152  1  0.70070000  0.63480000  0.97050000  1
  H  H153  1  0.70270000  0.85680000  0.95320000  1
  H  H154  1  0.76840000  0.91460000  0.96380000  1
  H  H155  1  0.86050000  0.79720000  0.00020000  1
  H  H156  1  0.35450000  0.29700000  0.55760000  1
  H  H157  1  0.41520000  0.23240000  0.55130000  1
  H  H158  1  0.29930000  0.13480000  0.52950000  1
  H  H159  1  0.29730000  0.35680000  0.54680000  1
  H  H160  1  0.23160000  0.41460000  0.53620000  1
  H  H161  1  0.13950000  0.29720000  0.49980000  1
  H  H162  1  0.14550000  0.70300000  0.05760000  1
  H  H163  1  0.08480000  0.76760000  0.05130000  1
  H  H164  1  0.20070000  0.86520000  0.02950000  1
  H  H165  1  0.20270000  0.64320000  0.04680000  1
  H  H166  1  0.26840000  0.58540000  0.03620000  1
  H  H167  1  0.36050000  0.70280000  0.99980000  1
  H  H168  1  0.44240000  0.85450000  0.20300000  1
  H  H169  1  0.44870000  0.91520000  0.26760000  1
  H  H170  1  0.47050000  0.79930000  0.36520000  1
  H  H171  1  0.45320000  0.79730000  0.14320000  1
  H  H172  1  0.46380000  0.73160000  0.08540000  1
  H  H173  1  0.50020000  0.63950000  0.20280000  1
  H  H174  1  0.94240000  0.64550000  0.79700000  1
  H  H175  1  0.94870000  0.58480000  0.73240000  1
  H  H176  1  0.97050000  0.70070000  0.63480000  1
  H  H177  1  0.95320000  0.70270000  0.85680000  1
  H  H178  1  0.96380000  0.76840000  0.91460000  1
  H  H179  1  0.00020000  0.86050000  0.79720000  1
  H  H180  1  0.55760000  0.35450000  0.29700000  1
  H  H181  1  0.55130000  0.41520000  0.23240000  1
  H  H182  1  0.52950000  0.29930000  0.13480000  1
  H  H183  1  0.54680000  0.29730000  0.35680000  1
  H  H184  1  0.53620000  0.23160000  0.41460000  1
  H  H185  1  0.49980000  0.13950000  0.29720000  1
  H  H186  1  0.05760000  0.14550000  0.70300000  1
  H  H187  1  0.05130000  0.08480000  0.76760000  1
  H  H188  1  0.02950000  0.20070000  0.86520000  1
  H  H189  1  0.04680000  0.20270000  0.64320000  1
  H  H190  1  0.03620000  0.26840000  0.58540000  1
  H  H191  1  0.99980000  0.36050000  0.70280000  1
  C  C192  1  0.75540000  0.53660000  0.20450000  1
  C  C193  1  0.76430000  0.54830000  0.15550000  1
  C  C194  1  0.72550000  0.54660000  0.11930000  1
  C  C195  1  0.67640000  0.53780000  0.13640000  1
  C  C196  1  0.66810000  0.53160000  0.18870000  1
  C  C197  1  0.79430000  0.53240000  0.24530000  1
  C  C198  1  0.84570000  0.53820000  0.23520000  1
  C  C199  1  0.88000000  0.53100000  0.27380000  1
  C  C200  1  0.86210000  0.51570000  0.32160000  1
  C  C201  1  0.81000000  0.50990000  0.32900000  1
  C  C202  1  0.63320000  0.53120000  0.10020000  1
  C  C203  1  0.89780000  0.50630000  0.36520000  1
  C  C204  1  0.35990000  0.64010000  0.14010000  1
  C  C205  1  0.32490000  0.67510000  0.17510000  1
  C  C206  1  0.74460000  0.46340000  0.70450000  1
  C  C207  1  0.73570000  0.45170000  0.65550000  1
  C  C208  1  0.77450000  0.45340000  0.61930000  1
  C  C209  1  0.82360000  0.46220000  0.63640000  1
  C  C210  1  0.83190000  0.46840000  0.68870000  1
  C  C211  1  0.70570000  0.46760000  0.74530000  1
  C  C212  1  0.65430000  0.46180000  0.73520000  1
  C  C213  1  0.62000000  0.46900000  0.77380000  1
  C  C214  1  0.63790000  0.48430000  0.82160000  1
  C  C215  1  0.69000000  0.49010000  0.82900000  1
  C  C216  1  0.86680000  0.46880000  0.60020000  1
  C  C217  1  0.60220000  0.49370000  0.86520000  1
  C  C218  1  0.14010000  0.35990000  0.64010000  1
  C  C219  1  0.17510000  0.32490000  0.67510000  1
  C  C220  1  0.25540000  0.96340000  0.79550000  1
  C  C221  1  0.26430000  0.95170000  0.84450000  1
  C  C222  1  0.22550000  0.95340000  0.88070000  1
  C  C223  1  0.17640000  0.96220000  0.86360000  1
  C  C224  1  0.16810000  0.96840000  0.81130000  1
  C  C225  1  0.29430000  0.96760000  0.75470000  1
  C  C226  1  0.34570000  0.96180000  0.76480000  1
  C  C227  1  0.38000000  0.96900000  0.72620000  1
  C  C228  1  0.36210000  0.98430000  0.67840000  1
  C  C229  1  0.31000000  0.99010000  0.67100000  1
  C  C230  1  0.13320000  0.96880000  0.89980000  1
  C  C231  1  0.39780000  0.99370000  0.63480000  1
  C  C232  1  0.85990000  0.85990000  0.85990000  1
  C  C233  1  0.82490000  0.82490000  0.82490000  1
  C  C234  1  0.24460000  0.03660000  0.29550000  1
  C  C235  1  0.23570000  0.04830000  0.34450000  1
  C  C236  1  0.27450000  0.04660000  0.38070000  1
  C  C237  1  0.32360000  0.03780000  0.36360000  1
  C  C238  1  0.33190000  0.03160000  0.31130000  1
  C  C239  1  0.20570000  0.03240000  0.25470000  1
  C  C240  1  0.15430000  0.03820000  0.26480000  1
  C  C241  1  0.12000000  0.03100000  0.22620000  1
  C  C242  1  0.13790000  0.01570000  0.17840000  1
  C  C243  1  0.19000000  0.00990000  0.17100000  1
  C  C244  1  0.36680000  0.03120000  0.39980000  1
  C  C245  1  0.10220000  0.00630000  0.13480000  1
  C  C246  1  0.64010000  0.14010000  0.35990000  1
  C  C247  1  0.67510000  0.17510000  0.32490000  1
  C  C248  1  0.20450000  0.75540000  0.53660000  1
  C  C249  1  0.15550000  0.76430000  0.54830000  1
  C  C250  1  0.11930000  0.72550000  0.54660000  1
  C  C251  1  0.13640000  0.67640000  0.53780000  1
  C  C252  1  0.18870000  0.66810000  0.53160000  1
  C  C253  1  0.24530000  0.79430000  0.53240000  1
  C  C254  1  0.23520000  0.84570000  0.53820000  1
  C  C255  1  0.27380000  0.88000000  0.53100000  1
  C  C256  1  0.32160000  0.86210000  0.51570000  1
  C  C257  1  0.32900000  0.81000000  0.50990000  1
  C  C258  1  0.10020000  0.63320000  0.53120000  1
  C  C259  1  0.36520000  0.89780000  0.50630000  1
  C  C260  1  0.29550000  0.24460000  0.03660000  1
  C  C261  1  0.34450000  0.23570000  0.04830000  1
  C  C262  1  0.38070000  0.27450000  0.04660000  1
  C  C263  1  0.36360000  0.32360000  0.03780000  1
  C  C264  1  0.31130000  0.33190000  0.03160000  1
  C  C265  1  0.25470000  0.20570000  0.03240000  1
  C  C266  1  0.26480000  0.15430000  0.03820000  1
  C  C267  1  0.22620000  0.12000000  0.03100000  1
  C  C268  1  0.17840000  0.13790000  0.01570000  1
  C  C269  1  0.17100000  0.19000000  0.00990000  1
  C  C270  1  0.39980000  0.36680000  0.03120000  1
  C  C271  1  0.13480000  0.10220000  0.00630000  1
  C  C272  1  0.70450000  0.74460000  0.46340000  1
  C  C273  1  0.65550000  0.73570000  0.45170000  1
  C  C274  1  0.61930000  0.77450000  0.45340000  1
  C  C275  1  0.63640000  0.82360000  0.46220000  1
  C  C276  1  0.68870000  0.83190000  0.46840000  1
  C  C277  1  0.74530000  0.70570000  0.46760000  1
  C  C278  1  0.73520000  0.65430000  0.46180000  1
  C  C279  1  0.77380000  0.62000000  0.46900000  1
  C  C280  1  0.82160000  0.63790000  0.48430000  1
  C  C281  1  0.82900000  0.69000000  0.49010000  1
  C  C282  1  0.60020000  0.86680000  0.46880000  1
  C  C283  1  0.86520000  0.60220000  0.49370000  1
  C  C284  1  0.79550000  0.25540000  0.96340000  1
  C  C285  1  0.84450000  0.26430000  0.95170000  1
  C  C286  1  0.88070000  0.22550000  0.95340000  1
  C  C287  1  0.86360000  0.17640000  0.96220000  1
  C  C288  1  0.81130000  0.16810000  0.96840000  1
  C  C289  1  0.75470000  0.29430000  0.96760000  1
  C  C290  1  0.76480000  0.34570000  0.96180000  1
  C  C291  1  0.72620000  0.38000000  0.96900000  1
  C  C292  1  0.67840000  0.36210000  0.98430000  1
  C  C293  1  0.67100000  0.31000000  0.99010000  1
  C  C294  1  0.89980000  0.13320000  0.96880000  1
  C  C295  1  0.63480000  0.39780000  0.99370000  1
  C  C296  1  0.53660000  0.20450000  0.75540000  1
  C  C297  1  0.54830000  0.15550000  0.76430000  1
  C  C298  1  0.54660000  0.11930000  0.72550000  1
  C  C299  1  0.53780000  0.13640000  0.67640000  1
  C  C300  1  0.53160000  0.18870000  0.66810000  1
  C  C301  1  0.53240000  0.24530000  0.79430000  1
  C  C302  1  0.53820000  0.23520000  0.84570000  1
  C  C303  1  0.53100000  0.27380000  0.88000000  1
  C  C304  1  0.51570000  0.32160000  0.86210000  1
  C  C305  1  0.50990000  0.32900000  0.81000000  1
  C  C306  1  0.53120000  0.10020000  0.63320000  1
  C  C307  1  0.50630000  0.36520000  0.89780000  1
  C  C308  1  0.03660000  0.29550000  0.24460000  1
  C  C309  1  0.04830000  0.34450000  0.23570000  1
  C  C310  1  0.04660000  0.38070000  0.27450000  1
  C  C311  1  0.03780000  0.36360000  0.32360000  1
  C  C312  1  0.03160000  0.31130000  0.33190000  1
  C  C313  1  0.03240000  0.25470000  0.20570000  1
  C  C314  1  0.03820000  0.26480000  0.15430000  1
  C  C315  1  0.03100000  0.22620000  0.12000000  1
  C  C316  1  0.01570000  0.17840000  0.13790000  1
  C  C317  1  0.00990000  0.17100000  0.19000000  1
  C  C318  1  0.03120000  0.39980000  0.36680000  1
  C  C319  1  0.00630000  0.13480000  0.10220000  1
  C  C320  1  0.46340000  0.70450000  0.74460000  1
  C  C321  1  0.45170000  0.65550000  0.73570000  1
  C  C322  1  0.45340000  0.61930000  0.77450000  1
  C  C323  1  0.46220000  0.63640000  0.82360000  1
  C  C324  1  0.46840000  0.68870000  0.83190000  1
  C  C325  1  0.46760000  0.74530000  0.70570000  1
  C  C326  1  0.46180000  0.73520000  0.65430000  1
  C  C327  1  0.46900000  0.77380000  0.62000000  1
  C  C328  1  0.48430000  0.82160000  0.63790000  1
  C  C329  1  0.49010000  0.82900000  0.69000000  1
  C  C330  1  0.46880000  0.60020000  0.86680000  1
  C  C331  1  0.49370000  0.86520000  0.60220000  1
  C  C332  1  0.96340000  0.79550000  0.25540000  1
  C  C333  1  0.95170000  0.84450000  0.26430000  1
  C  C334  1  0.95340000  0.88070000  0.22550000  1
  C  C335  1  0.96220000  0.86360000  0.17640000  1
  C  C336  1  0.96840000  0.81130000  0.16810000  1
  C  C337  1  0.96760000  0.75470000  0.29430000  1
  C  C338  1  0.96180000  0.76480000  0.34570000  1
  C  C339  1  0.96900000  0.72620000  0.38000000  1
  C  C340  1  0.98430000  0.67840000  0.36210000  1
  C  C341  1  0.99010000  0.67100000  0.31000000  1
  C  C342  1  0.96880000  0.89980000  0.13320000  1
  C  C343  1  0.99370000  0.63480000  0.39780000  1
  C  C344  1  0.24460000  0.46340000  0.79550000  1
  C  C345  1  0.23570000  0.45170000  0.84450000  1
  C  C346  1  0.27450000  0.45340000  0.88070000  1
  C  C347  1  0.32360000  0.46220000  0.86360000  1
  C  C348  1  0.33190000  0.46840000  0.81130000  1
  C  C349  1  0.20570000  0.46760000  0.75470000  1
  C  C350  1  0.15430000  0.46180000  0.76480000  1
  C  C351  1  0.12000000  0.46900000  0.72620000  1
  C  C352  1  0.13790000  0.48430000  0.67840000  1
  C  C353  1  0.19000000  0.49010000  0.67100000  1
  C  C354  1  0.36680000  0.46880000  0.89980000  1
  C  C355  1  0.10220000  0.49370000  0.63480000  1
  C  C356  1  0.64010000  0.35990000  0.85990000  1
  C  C357  1  0.67510000  0.32490000  0.82490000  1
  C  C358  1  0.25540000  0.53660000  0.29550000  1
  C  C359  1  0.26430000  0.54830000  0.34450000  1
  C  C360  1  0.22550000  0.54660000  0.38070000  1
  C  C361  1  0.17640000  0.53780000  0.36360000  1
  C  C362  1  0.16810000  0.53160000  0.31130000  1
  C  C363  1  0.29430000  0.53240000  0.25470000  1
  C  C364  1  0.34570000  0.53820000  0.26480000  1
  C  C365  1  0.38000000  0.53100000  0.22620000  1
  C  C366  1  0.36210000  0.51570000  0.17840000  1
  C  C367  1  0.31000000  0.50990000  0.17100000  1
  C  C368  1  0.13320000  0.53120000  0.39980000  1
  C  C369  1  0.39780000  0.50630000  0.13480000  1
  C  C370  1  0.85990000  0.64010000  0.35990000  1
  C  C371  1  0.82490000  0.67510000  0.32490000  1
  C  C372  1  0.74460000  0.03660000  0.20450000  1
  C  C373  1  0.73570000  0.04830000  0.15550000  1
  C  C374  1  0.77450000  0.04660000  0.11930000  1
  C  C375  1  0.82360000  0.03780000  0.13640000  1
  C  C376  1  0.83190000  0.03160000  0.18870000  1
  C  C377  1  0.70570000  0.03240000  0.24530000  1
  C  C378  1  0.65430000  0.03820000  0.23520000  1
  C  C379  1  0.62000000  0.03100000  0.27380000  1
  C  C380  1  0.63790000  0.01570000  0.32160000  1
  C  C381  1  0.69000000  0.00990000  0.32900000  1
  C  C382  1  0.86680000  0.03120000  0.10020000  1
  C  C383  1  0.60220000  0.00630000  0.36520000  1
  C  C384  1  0.14010000  0.14010000  0.14010000  1
  C  C385  1  0.17510000  0.17510000  0.17510000  1
  C  C386  1  0.75540000  0.96340000  0.70450000  1
  C  C387  1  0.76430000  0.95170000  0.65550000  1
  C  C388  1  0.72550000  0.95340000  0.61930000  1
  C  C389  1  0.67640000  0.96220000  0.63640000  1
  C  C390  1  0.66810000  0.96840000  0.68870000  1
  C  C391  1  0.79430000  0.96760000  0.74530000  1
  C  C392  1  0.84570000  0.96180000  0.73520000  1
  C  C393  1  0.88000000  0.96900000  0.77380000  1
  C  C394  1  0.86210000  0.98430000  0.82160000  1
  C  C395  1  0.81000000  0.99010000  0.82900000  1
  C  C396  1  0.63320000  0.96880000  0.60020000  1
  C  C397  1  0.89780000  0.99370000  0.86520000  1
  C  C398  1  0.35990000  0.85990000  0.64010000  1
  C  C399  1  0.32490000  0.82490000  0.67510000  1
  C  C400  1  0.79550000  0.24460000  0.46340000  1
  C  C401  1  0.84450000  0.23570000  0.45170000  1
  C  C402  1  0.88070000  0.27450000  0.45340000  1
  C  C403  1  0.86360000  0.32360000  0.46220000  1
  C  C404  1  0.81130000  0.33190000  0.46840000  1
  C  C405  1  0.75470000  0.20570000  0.46760000  1
  C  C406  1  0.76480000  0.15430000  0.46180000  1
  C  C407  1  0.72620000  0.12000000  0.46900000  1
  C  C408  1  0.67840000  0.13790000  0.48430000  1
  C  C409  1  0.67100000  0.19000000  0.49010000  1
  C  C410  1  0.89980000  0.36680000  0.46880000  1
  C  C411  1  0.63480000  0.10220000  0.49370000  1
  C  C412  1  0.70450000  0.75540000  0.96340000  1
  C  C413  1  0.65550000  0.76430000  0.95170000  1
  C  C414  1  0.61930000  0.72550000  0.95340000  1
  C  C415  1  0.63640000  0.67640000  0.96220000  1
  C  C416  1  0.68870000  0.66810000  0.96840000  1
  C  C417  1  0.74530000  0.79430000  0.96760000  1
  C  C418  1  0.73520000  0.84570000  0.96180000  1
  C  C419  1  0.77380000  0.88000000  0.96900000  1
  C  C420  1  0.82160000  0.86210000  0.98430000  1
  C  C421  1  0.82900000  0.81000000  0.99010000  1
  C  C422  1  0.60020000  0.63320000  0.96880000  1
  C  C423  1  0.86520000  0.89780000  0.99370000  1
  C  C424  1  0.29550000  0.25540000  0.53660000  1
  C  C425  1  0.34450000  0.26430000  0.54830000  1
  C  C426  1  0.38070000  0.22550000  0.54660000  1
  C  C427  1  0.36360000  0.17640000  0.53780000  1
  C  C428  1  0.31130000  0.16810000  0.53160000  1
  C  C429  1  0.25470000  0.29430000  0.53240000  1
  C  C430  1  0.26480000  0.34570000  0.53820000  1
  C  C431  1  0.22620000  0.38000000  0.53100000  1
  C  C432  1  0.17840000  0.36210000  0.51570000  1
  C  C433  1  0.17100000  0.31000000  0.50990000  1
  C  C434  1  0.39980000  0.13320000  0.53120000  1
  C  C435  1  0.13480000  0.39780000  0.50630000  1
  C  C436  1  0.20450000  0.74460000  0.03660000  1
  C  C437  1  0.15550000  0.73570000  0.04830000  1
  C  C438  1  0.11930000  0.77450000  0.04660000  1
  C  C439  1  0.13640000  0.82360000  0.03780000  1
  C  C440  1  0.18870000  0.83190000  0.03160000  1
  C  C441  1  0.24530000  0.70570000  0.03240000  1
  C  C442  1  0.23520000  0.65430000  0.03820000  1
  C  C443  1  0.27380000  0.62000000  0.03100000  1
  C  C444  1  0.32160000  0.63790000  0.01570000  1
  C  C445  1  0.32900000  0.69000000  0.00990000  1
  C  C446  1  0.10020000  0.86680000  0.03120000  1
  C  C447  1  0.36520000  0.60220000  0.00630000  1
  C  C448  1  0.46340000  0.79550000  0.24460000  1
  C  C449  1  0.45170000  0.84450000  0.23570000  1
  C  C450  1  0.45340000  0.88070000  0.27450000  1
  C  C451  1  0.46220000  0.86360000  0.32360000  1
  C  C452  1  0.46840000  0.81130000  0.33190000  1
  C  C453  1  0.46760000  0.75470000  0.20570000  1
  C  C454  1  0.46180000  0.76480000  0.15430000  1
  C  C455  1  0.46900000  0.72620000  0.12000000  1
  C  C456  1  0.48430000  0.67840000  0.13790000  1
  C  C457  1  0.49010000  0.67100000  0.19000000  1
  C  C458  1  0.46880000  0.89980000  0.36680000  1
  C  C459  1  0.49370000  0.63480000  0.10220000  1
  C  C460  1  0.96340000  0.70450000  0.75540000  1
  C  C461  1  0.95170000  0.65550000  0.76430000  1
  C  C462  1  0.95340000  0.61930000  0.72550000  1
  C  C463  1  0.96220000  0.63640000  0.67640000  1
  C  C464  1  0.96840000  0.68870000  0.66810000  1
  C  C465  1  0.96760000  0.74530000  0.79430000  1
  C  C466  1  0.96180000  0.73520000  0.84570000  1
  C  C467  1  0.96900000  0.77380000  0.88000000  1
  C  C468  1  0.98430000  0.82160000  0.86210000  1
  C  C469  1  0.99010000  0.82900000  0.81000000  1
  C  C470  1  0.96880000  0.60020000  0.63320000  1
  C  C471  1  0.99370000  0.86520000  0.89780000  1
  C  C472  1  0.53660000  0.29550000  0.25540000  1
  C  C473  1  0.54830000  0.34450000  0.26430000  1
  C  C474  1  0.54660000  0.38070000  0.22550000  1
  C  C475  1  0.53780000  0.36360000  0.17640000  1
  C  C476  1  0.53160000  0.31130000  0.16810000  1
  C  C477  1  0.53240000  0.25470000  0.29430000  1
  C  C478  1  0.53820000  0.26480000  0.34570000  1
  C  C479  1  0.53100000  0.22620000  0.38000000  1
  C  C480  1  0.51570000  0.17840000  0.36210000  1
  C  C481  1  0.50990000  0.17100000  0.31000000  1
  C  C482  1  0.53120000  0.39980000  0.13320000  1
  C  C483  1  0.50630000  0.13480000  0.39780000  1
  C  C484  1  0.03660000  0.20450000  0.74460000  1
  C  C485  1  0.04830000  0.15550000  0.73570000  1
  C  C486  1  0.04660000  0.11930000  0.77450000  1
  C  C487  1  0.03780000  0.13640000  0.82360000  1
  C  C488  1  0.03160000  0.18870000  0.83190000  1
  C  C489  1  0.03240000  0.24530000  0.70570000  1
  C  C490  1  0.03820000  0.23520000  0.65430000  1
  C  C491  1  0.03100000  0.27380000  0.62000000  1
  C  C492  1  0.01570000  0.32160000  0.63790000  1
  C  C493  1  0.00990000  0.32900000  0.69000000  1
  C  C494  1  0.03120000  0.10020000  0.86680000  1
  C  C495  1  0.00630000  0.36520000  0.60220000  1
  Br  Br496  1  0.60610000  0.49080000  0.29840000  1
  Br  Br497  1  0.69370000  0.53440000  0.39410000  1
  Br  Br498  1  0.89390000  0.50920000  0.79840000  1
  Br  Br499  1  0.80630000  0.46560000  0.89410000  1
  Br  Br500  1  0.10610000  0.00920000  0.70160000  1
  Br  Br501  1  0.19370000  0.96560000  0.60590000  1
  Br  Br502  1  0.39390000  0.99080000  0.20160000  1
  Br  Br503  1  0.30630000  0.03440000  0.10590000  1
  Br  Br504  1  0.29840000  0.60610000  0.49080000  1
  Br  Br505  1  0.39410000  0.69370000  0.53440000  1
  Br  Br506  1  0.20160000  0.39390000  0.99080000  1
  Br  Br507  1  0.10590000  0.30630000  0.03440000  1
  Br  Br508  1  0.79840000  0.89390000  0.50920000  1
  Br  Br509  1  0.89410000  0.80630000  0.46560000  1
  Br  Br510  1  0.70160000  0.10610000  0.00920000  1
  Br  Br511  1  0.60590000  0.19370000  0.96560000  1
  Br  Br512  1  0.49080000  0.29840000  0.60610000  1
  Br  Br513  1  0.53440000  0.39410000  0.69370000  1
  Br  Br514  1  0.99080000  0.20160000  0.39390000  1
  Br  Br515  1  0.03440000  0.10590000  0.30630000  1
  Br  Br516  1  0.50920000  0.79840000  0.89390000  1
  Br  Br517  1  0.46560000  0.89410000  0.80630000  1
  Br  Br518  1  0.00920000  0.70160000  0.10610000  1
  Br  Br519  1  0.96560000  0.60590000  0.19370000  1
  Br  Br520  1  0.39390000  0.50920000  0.70160000  1
  Br  Br521  1  0.30630000  0.46560000  0.60590000  1
  Br  Br522  1  0.10610000  0.49080000  0.20160000  1
  Br  Br523  1  0.19370000  0.53440000  0.10590000  1
  Br  Br524  1  0.89390000  0.99080000  0.29840000  1
  Br  Br525  1  0.80630000  0.03440000  0.39410000  1
  Br  Br526  1  0.60610000  0.00920000  0.79840000  1
  Br  Br527  1  0.69370000  0.96560000  0.89410000  1
  Br  Br528  1  0.70160000  0.39390000  0.50920000  1
  Br  Br529  1  0.60590000  0.30630000  0.46560000  1
  Br  Br530  1  0.79840000  0.60610000  0.00920000  1
  Br  Br531  1  0.89410000  0.69370000  0.96560000  1
  Br  Br532  1  0.20160000  0.10610000  0.49080000  1
  Br  Br533  1  0.10590000  0.19370000  0.53440000  1
  Br  Br534  1  0.29840000  0.89390000  0.99080000  1
  Br  Br535  1  0.39410000  0.80630000  0.03440000  1
  Br  Br536  1  0.50920000  0.70160000  0.39390000  1
  Br  Br537  1  0.46560000  0.60590000  0.30630000  1
  Br  Br538  1  0.00920000  0.79840000  0.60610000  1
  Br  Br539  1  0.96560000  0.89410000  0.69370000  1
  Br  Br540  1  0.49080000  0.20160000  0.10610000  1
  Br  Br541  1  0.53440000  0.10590000  0.19370000  1
  Br  Br542  1  0.99080000  0.29840000  0.89390000  1
  Br  Br543  1  0.03440000  0.39410000  0.80630000  1
  N  N544  1  0.70710000  0.52850000  0.22220000  1
  N  N545  1  0.77860000  0.51910000  0.29030000  1
  N  N546  1  0.38270000  0.61730000  0.11730000  1
  N  N547  1  0.79290000  0.47150000  0.72220000  1
  N  N548  1  0.72140000  0.48090000  0.79030000  1
  N  N549  1  0.11730000  0.38270000  0.61730000  1
  N  N550  1  0.20710000  0.97150000  0.77780000  1
  N  N551  1  0.27860000  0.98090000  0.70970000  1
  N  N552  1  0.88270000  0.88270000  0.88270000  1
  N  N553  1  0.29290000  0.02850000  0.27780000  1
  N  N554  1  0.22140000  0.01910000  0.20970000  1
  N  N555  1  0.61730000  0.11730000  0.38270000  1
  N  N556  1  0.22220000  0.70710000  0.52850000  1
  N  N557  1  0.29030000  0.77860000  0.51910000  1
  N  N558  1  0.27780000  0.29290000  0.02850000  1
  N  N559  1  0.20970000  0.22140000  0.01910000  1
  N  N560  1  0.72220000  0.79290000  0.47150000  1
  N  N561  1  0.79030000  0.72140000  0.48090000  1
  N  N562  1  0.77780000  0.20710000  0.97150000  1
  N  N563  1  0.70970000  0.27860000  0.98090000  1
  N  N564  1  0.52850000  0.22220000  0.70710000  1
  N  N565  1  0.51910000  0.29030000  0.77860000  1
  N  N566  1  0.02850000  0.27780000  0.29290000  1
  N  N567  1  0.01910000  0.20970000  0.22140000  1
  N  N568  1  0.47150000  0.72220000  0.79290000  1
  N  N569  1  0.48090000  0.79030000  0.72140000  1
  N  N570  1  0.97150000  0.77780000  0.20710000  1
  N  N571  1  0.98090000  0.70970000  0.27860000  1
  N  N572  1  0.29290000  0.47150000  0.77780000  1
  N  N573  1  0.22140000  0.48090000  0.70970000  1
  N  N574  1  0.61730000  0.38270000  0.88270000  1
  N  N575  1  0.20710000  0.52850000  0.27780000  1
  N  N576  1  0.27860000  0.51910000  0.20970000  1
  N  N577  1  0.88270000  0.61730000  0.38270000  1
  N  N578  1  0.79290000  0.02850000  0.22220000  1
  N  N579  1  0.72140000  0.01910000  0.29030000  1
  N  N580  1  0.11730000  0.11730000  0.11730000  1
  N  N581  1  0.70710000  0.97150000  0.72220000  1
  N  N582  1  0.77860000  0.98090000  0.79030000  1
  N  N583  1  0.38270000  0.88270000  0.61730000  1
  N  N584  1  0.77780000  0.29290000  0.47150000  1
  N  N585  1  0.70970000  0.22140000  0.48090000  1
  N  N586  1  0.72220000  0.70710000  0.97150000  1
  N  N587  1  0.79030000  0.77860000  0.98090000  1
  N  N588  1  0.27780000  0.20710000  0.52850000  1
  N  N589  1  0.20970000  0.27860000  0.51910000  1
  N  N590  1  0.22220000  0.79290000  0.02850000  1
  N  N591  1  0.29030000  0.72140000  0.01910000  1
  N  N592  1  0.47150000  0.77780000  0.29290000  1
  N  N593  1  0.48090000  0.70970000  0.22140000  1
  N  N594  1  0.97150000  0.72220000  0.70710000  1
  N  N595  1  0.98090000  0.79030000  0.77860000  1
  N  N596  1  0.52850000  0.27780000  0.20710000  1
  N  N597  1  0.51910000  0.20970000  0.27860000  1
  N  N598  1  0.02850000  0.22220000  0.79290000  1
  N  N599  1  0.01910000  0.29030000  0.72140000  1
  O  O600  1  0.55110000  0.56770000  0.03760000  1
  O  O601  1  0.58880000  0.52930000  0.12109000  1
  O  O602  1  0.64260000  0.52820000  0.05353000  1
  O  O603  1  0.87680000  0.49460000  0.40761000  1
  O  O604  1  0.94481000  0.51060000  0.35570000  1
  O  O605  1  0.44690000  0.55310000  0.05310000  1
  O  O606  1  0.94890000  0.43230000  0.53760000  1
  O  O607  1  0.91120000  0.47070000  0.62109000  1
  O  O608  1  0.85740000  0.47180000  0.55353000  1
  O  O609  1  0.62320000  0.50540000  0.90761000  1
  O  O610  1  0.55519000  0.48940000  0.85570000  1
  O  O611  1  0.05310000  0.44690000  0.55310000  1
  O  O612  1  0.05110000  0.93230000  0.96240000  1
  O  O613  1  0.08880000  0.97070000  0.87891000  1
  O  O614  1  0.14260000  0.97180000  0.94647000  1
  O  O615  1  0.37680000  0.00540000  0.59239000  1
  O  O616  1  0.44481000  0.98940000  0.64430000  1
  O  O617  1  0.94690000  0.94690000  0.94690000  1
  O  O618  1  0.44890000  0.06770000  0.46240000  1
  O  O619  1  0.41120000  0.02930000  0.37891000  1
  O  O620  1  0.35740000  0.02820000  0.44647000  1
  O  O621  1  0.12320000  0.99460000  0.09239000  1
  O  O622  1  0.05519000  0.01060000  0.14430000  1
  O  O623  1  0.55310000  0.05310000  0.44690000  1
  O  O624  1  0.03760000  0.55110000  0.56770000  1
  O  O625  1  0.12109000  0.58880000  0.52930000  1
  O  O626  1  0.05353000  0.64260000  0.52820000  1
  O  O627  1  0.40761000  0.87680000  0.49460000  1
  O  O628  1  0.35570000  0.94481000  0.51060000  1
  O  O629  1  0.46240000  0.44890000  0.06770000  1
  O  O630  1  0.37891000  0.41120000  0.02930000  1
  O  O631  1  0.44647000  0.35740000  0.02820000  1
  O  O632  1  0.09239000  0.12320000  0.99460000  1
  O  O633  1  0.14430000  0.05519000  0.01060000  1
  O  O634  1  0.53760000  0.94890000  0.43230000  1
  O  O635  1  0.62109000  0.91120000  0.47070000  1
  O  O636  1  0.55353000  0.85740000  0.47180000  1
  O  O637  1  0.90761000  0.62320000  0.50540000  1
  O  O638  1  0.85570000  0.55519000  0.48940000  1
  O  O639  1  0.96240000  0.05110000  0.93230000  1
  O  O640  1  0.87891000  0.08880000  0.97070000  1
  O  O641  1  0.94647000  0.14260000  0.97180000  1
  O  O642  1  0.59239000  0.37680000  0.00540000  1
  O  O643  1  0.64430000  0.44481000  0.98940000  1
  O  O644  1  0.56770000  0.03760000  0.55110000  1
  O  O645  1  0.52930000  0.12109000  0.58880000  1
  O  O646  1  0.52820000  0.05353000  0.64260000  1
  O  O647  1  0.49460000  0.40761000  0.87680000  1
  O  O648  1  0.51060000  0.35570000  0.94481000  1
  O  O649  1  0.06770000  0.46240000  0.44890000  1
  O  O650  1  0.02930000  0.37891000  0.41120000  1
  O  O651  1  0.02820000  0.44647000  0.35740000  1
  O  O652  1  0.99460000  0.09239000  0.12320000  1
  O  O653  1  0.01060000  0.14430000  0.05519000  1
  O  O654  1  0.43230000  0.53760000  0.94890000  1
  O  O655  1  0.47070000  0.62109000  0.91120000  1
  O  O656  1  0.47180000  0.55353000  0.85740000  1
  O  O657  1  0.50540000  0.90761000  0.62320000  1
  O  O658  1  0.48940000  0.85570000  0.55519000  1
  O  O659  1  0.93230000  0.96240000  0.05110000  1
  O  O660  1  0.97070000  0.87891000  0.08880000  1
  O  O661  1  0.97180000  0.94647000  0.14260000  1
  O  O662  1  0.00540000  0.59239000  0.37680000  1
  O  O663  1  0.98940000  0.64430000  0.44481000  1
  O  O664  1  0.44890000  0.43230000  0.96240000  1
  O  O665  1  0.41120000  0.47070000  0.87891000  1
  O  O666  1  0.35740000  0.47180000  0.94647000  1
  O  O667  1  0.12320000  0.50540000  0.59239000  1
  O  O668  1  0.05519000  0.48940000  0.64430000  1
  O  O669  1  0.55310000  0.44690000  0.94690000  1
  O  O670  1  0.05110000  0.56770000  0.46240000  1
  O  O671  1  0.08880000  0.52930000  0.37891000  1
  O  O672  1  0.14260000  0.52820000  0.44647000  1
  O  O673  1  0.37680000  0.49460000  0.09239000  1
  O  O674  1  0.44481000  0.51060000  0.14430000  1
  O  O675  1  0.94690000  0.55310000  0.44690000  1
  O  O676  1  0.94890000  0.06770000  0.03760000  1
  O  O677  1  0.91120000  0.02930000  0.12109000  1
  O  O678  1  0.85740000  0.02820000  0.05353000  1
  O  O679  1  0.62320000  0.99460000  0.40761000  1
  O  O680  1  0.55519000  0.01060000  0.35570000  1
  O  O681  1  0.05310000  0.05310000  0.05310000  1
  O  O682  1  0.55110000  0.93230000  0.53760000  1
  O  O683  1  0.58880000  0.97070000  0.62109000  1
  O  O684  1  0.64260000  0.97180000  0.55353000  1
  O  O685  1  0.87680000  0.00540000  0.90761000  1
  O  O686  1  0.94481000  0.98940000  0.85570000  1
  O  O687  1  0.44690000  0.94690000  0.55310000  1
  O  O688  1  0.96240000  0.44890000  0.43230000  1
  O  O689  1  0.87891000  0.41120000  0.47070000  1
  O  O690  1  0.94647000  0.35740000  0.47180000  1
  O  O691  1  0.59239000  0.12320000  0.50540000  1
  O  O692  1  0.64430000  0.05519000  0.48940000  1
  O  O693  1  0.53760000  0.55110000  0.93230000  1
  O  O694  1  0.62109000  0.58880000  0.97070000  1
  O  O695  1  0.55353000  0.64260000  0.97180000  1
  O  O696  1  0.90761000  0.87680000  0.00540000  1
  O  O697  1  0.85570000  0.94481000  0.98940000  1
  O  O698  1  0.46240000  0.05110000  0.56770000  1
  O  O699  1  0.37891000  0.08880000  0.52930000  1
  O  O700  1  0.44647000  0.14260000  0.52820000  1
  O  O701  1  0.09239000  0.37680000  0.49460000  1
  O  O702  1  0.14430000  0.44481000  0.51060000  1
  O  O703  1  0.03760000  0.94890000  0.06770000  1
  O  O704  1  0.12109000  0.91120000  0.02930000  1
  O  O705  1  0.05353000  0.85740000  0.02820000  1
  O  O706  1  0.40761000  0.62320000  0.99460000  1
  O  O707  1  0.35570000  0.55519000  0.01060000  1
  O  O708  1  0.43230000  0.96240000  0.44890000  1
  O  O709  1  0.47070000  0.87891000  0.41120000  1
  O  O710  1  0.47180000  0.94647000  0.35740000  1
  O  O711  1  0.50540000  0.59239000  0.12320000  1
  O  O712  1  0.48940000  0.64430000  0.05519000  1
  O  O713  1  0.93230000  0.53760000  0.55110000  1
  O  O714  1  0.97070000  0.62109000  0.58880000  1
  O  O715  1  0.97180000  0.55353000  0.64260000  1
  O  O716  1  0.00540000  0.90761000  0.87680000  1
  O  O717  1  0.98940000  0.85570000  0.94481000  1
  O  O718  1  0.56770000  0.46240000  0.05110000  1
  O  O719  1  0.52930000  0.37891000  0.08880000  1
  O  O720  1  0.52820000  0.44647000  0.14260000  1
  O  O721  1  0.49460000  0.09239000  0.37680000  1
  O  O722  1  0.51060000  0.14430000  0.44481000  1
  O  O723  1  0.06770000  0.03760000  0.94890000  1
  O  O724  1  0.02930000  0.12109000  0.91120000  1
  O  O725  1  0.02820000  0.05353000  0.85740000  1
  O  O726  1  0.99460000  0.40761000  0.62320000  1
  O  O727  1  0.01060000  0.35570000  0.55519000  1
