# generated using pymatgen
data_Zr3Cu3H18C36N6(Cl3O8)2
_symmetry_space_group_name_H-M   'P 1'
_cell_length_a   26.04830000
_cell_length_b   26.04830000
_cell_length_c   26.04830000
_cell_angle_alpha   90.00000000
_cell_angle_beta   90.00000000
_cell_angle_gamma   90.00000000
_symmetry_Int_Tables_number   1
_chemical_formula_structural   Zr3Cu3H18C36N6(Cl3O8)2
_chemical_formula_sum   'Zr24 Cu24 H144 C288 N48 Cl48 O128'
_cell_volume   17674.13447810
_cell_formula_units_Z   8
loop_
 _symmetry_equiv_pos_site_id
 _symmetry_equiv_pos_as_xyz
  1  'x, y, z'
loop_
 _atom_site_type_symbol
 _atom_site_label
 _atom_site_symmetry_multiplicity
 _atom_site_fract_x
 _atom_site_fract_y
 _atom_site_fract_z
 _atom_site_occupancy
  Zr  Zr0  1  0.51432000  0.48322000  0.40776000  1
  Zr  Zr1  1  0.98568000  0.51678000  0.90776000  1
  Zr  Zr2  1  0.01432000  0.01678000  0.59224000  1
  Zr  Zr3  1  0.48568000  0.98322000  0.09224000  1
  Zr  Zr4  1  0.40776000  0.51432000  0.48322000  1
  Zr  Zr5  1  0.09224000  0.48568000  0.98322000  1
  Zr  Zr6  1  0.90776000  0.98568000  0.51678000  1
  Zr  Zr7  1  0.59224000  0.01432000  0.01678000  1
  Zr  Zr8  1  0.48322000  0.40776000  0.51432000  1
  Zr  Zr9  1  0.98322000  0.09224000  0.48568000  1
  Zr  Zr10  1  0.51678000  0.90776000  0.98568000  1
  Zr  Zr11  1  0.01678000  0.59224000  0.01432000  1
  Zr  Zr12  1  0.48568000  0.51678000  0.59224000  1
  Zr  Zr13  1  0.01432000  0.48322000  0.09224000  1
  Zr  Zr14  1  0.98568000  0.98322000  0.40776000  1
  Zr  Zr15  1  0.51432000  0.01678000  0.90776000  1
  Zr  Zr16  1  0.59224000  0.48568000  0.51678000  1
  Zr  Zr17  1  0.90776000  0.51432000  0.01678000  1
  Zr  Zr18  1  0.09224000  0.01432000  0.48322000  1
  Zr  Zr19  1  0.40776000  0.98568000  0.98322000  1
  Zr  Zr20  1  0.51678000  0.59224000  0.48568000  1
  Zr  Zr21  1  0.01678000  0.90776000  0.51432000  1
  Zr  Zr22  1  0.48322000  0.09224000  0.01432000  1
  Zr  Zr23  1  0.98322000  0.40776000  0.98568000  1
  Cu  Cu24  1  0.20629000  0.48587000  0.29169000  1
  Cu  Cu25  1  0.29371000  0.51413000  0.79169000  1
  Cu  Cu26  1  0.70629000  0.01413000  0.70831000  1
  Cu  Cu27  1  0.79371000  0.98587000  0.20831000  1
  Cu  Cu28  1  0.29169000  0.20629000  0.48587000  1
  Cu  Cu29  1  0.20831000  0.79371000  0.98587000  1
  Cu  Cu30  1  0.79169000  0.29371000  0.51413000  1
  Cu  Cu31  1  0.70831000  0.70629000  0.01413000  1
  Cu  Cu32  1  0.48587000  0.29169000  0.20629000  1
  Cu  Cu33  1  0.98587000  0.20831000  0.79371000  1
  Cu  Cu34  1  0.51413000  0.79169000  0.29371000  1
  Cu  Cu35  1  0.01413000  0.70831000  0.70629000  1
  Cu  Cu36  1  0.79371000  0.51413000  0.70831000  1
  Cu  Cu37  1  0.70629000  0.48587000  0.20831000  1
  Cu  Cu38  1  0.29371000  0.98587000  0.29169000  1
  Cu  Cu39  1  0.20629000  0.01413000  0.79169000  1
  Cu  Cu40  1  0.70831000  0.79371000  0.51413000  1
  Cu  Cu41  1  0.79169000  0.20629000  0.01413000  1
  Cu  Cu42  1  0.20831000  0.70629000  0.48587000  1
  Cu  Cu43  1  0.29169000  0.29371000  0.98587000  1
  Cu  Cu44  1  0.51413000  0.70831000  0.79371000  1
  Cu  Cu45  1  0.01413000  0.79169000  0.20629000  1
  Cu  Cu46  1  0.48587000  0.20831000  0.70629000  1
  Cu  Cu47  1  0.98587000  0.29169000  0.29371000  1
  H  H48  1  0.36420000  0.45780000  0.19490000  1
  H  H49  1  0.42270000  0.47160000  0.26310000  1
  H  H50  1  0.30160000  0.49510000  0.35710000  1
  H  H51  1  0.30440000  0.45070000  0.13570000  1
  H  H52  1  0.23530000  0.44840000  0.07750000  1
  H  H53  1  0.13940000  0.47950000  0.19530000  1
  H  H54  1  0.13580000  0.54220000  0.69490000  1
  H  H55  1  0.07730000  0.52840000  0.76310000  1
  H  H56  1  0.19840000  0.50490000  0.85710000  1
  H  H57  1  0.19560000  0.54930000  0.63570000  1
  H  H58  1  0.26470000  0.55160000  0.57750000  1
  H  H59  1  0.36060000  0.52050000  0.69530000  1
  H  H60  1  0.86420000  0.04220000  0.80510000  1
  H  H61  1  0.92270000  0.02840000  0.73690000  1
  H  H62  1  0.80160000  0.00490000  0.64290000  1
  H  H63  1  0.80440000  0.04930000  0.86430000  1
  H  H64  1  0.73530000  0.05160000  0.92250000  1
  H  H65  1  0.63940000  0.02050000  0.80470000  1
  H  H66  1  0.63580000  0.95780000  0.30510000  1
  H  H67  1  0.57730000  0.97160000  0.23690000  1
  H  H68  1  0.69840000  0.99510000  0.14290000  1
  H  H69  1  0.69560000  0.95070000  0.36430000  1
  H  H70  1  0.76470000  0.94840000  0.42250000  1
  H  H71  1  0.86060000  0.97950000  0.30470000  1
  H  H72  1  0.19490000  0.36420000  0.45780000  1
  H  H73  1  0.26310000  0.42270000  0.47160000  1
  H  H74  1  0.35710000  0.30160000  0.49510000  1
  H  H75  1  0.13570000  0.30440000  0.45070000  1
  H  H76  1  0.07750000  0.23530000  0.44840000  1
  H  H77  1  0.19530000  0.13940000  0.47950000  1
  H  H78  1  0.30510000  0.63580000  0.95780000  1
  H  H79  1  0.23690000  0.57730000  0.97160000  1
  H  H80  1  0.14290000  0.69840000  0.99510000  1
  H  H81  1  0.36430000  0.69560000  0.95070000  1
  H  H82  1  0.42250000  0.76470000  0.94840000  1
  H  H83  1  0.30470000  0.86060000  0.97950000  1
  H  H84  1  0.69490000  0.13580000  0.54220000  1
  H  H85  1  0.76310000  0.07730000  0.52840000  1
  H  H86  1  0.85710000  0.19840000  0.50490000  1
  H  H87  1  0.63570000  0.19560000  0.54930000  1
  H  H88  1  0.57750000  0.26470000  0.55160000  1
  H  H89  1  0.69530000  0.36060000  0.52050000  1
  H  H90  1  0.80510000  0.86420000  0.04220000  1
  H  H91  1  0.73690000  0.92270000  0.02840000  1
  H  H92  1  0.64290000  0.80160000  0.00490000  1
  H  H93  1  0.86430000  0.80440000  0.04930000  1
  H  H94  1  0.92250000  0.73530000  0.05160000  1
  H  H95  1  0.80470000  0.63940000  0.02050000  1
  H  H96  1  0.45780000  0.19490000  0.36420000  1
  H  H97  1  0.47160000  0.26310000  0.42270000  1
  H  H98  1  0.49510000  0.35710000  0.30160000  1
  H  H99  1  0.45070000  0.13570000  0.30440000  1
  H  H100  1  0.44840000  0.07750000  0.23530000  1
  H  H101  1  0.47950000  0.19530000  0.13940000  1
  H  H102  1  0.95780000  0.30510000  0.63580000  1
  H  H103  1  0.97160000  0.23690000  0.57730000  1
  H  H104  1  0.99510000  0.14290000  0.69840000  1
  H  H105  1  0.95070000  0.36430000  0.69560000  1
  H  H106  1  0.94840000  0.42250000  0.76470000  1
  H  H107  1  0.97950000  0.30470000  0.86060000  1
  H  H108  1  0.54220000  0.69490000  0.13580000  1
  H  H109  1  0.52840000  0.76310000  0.07730000  1
  H  H110  1  0.50490000  0.85710000  0.19840000  1
  H  H111  1  0.54930000  0.63570000  0.19560000  1
  H  H112  1  0.55160000  0.57750000  0.26470000  1
  H  H113  1  0.52050000  0.69530000  0.36060000  1
  H  H114  1  0.04220000  0.80510000  0.86420000  1
  H  H115  1  0.02840000  0.73690000  0.92270000  1
  H  H116  1  0.00490000  0.64290000  0.80160000  1
  H  H117  1  0.04930000  0.86430000  0.80440000  1
  H  H118  1  0.05160000  0.92250000  0.73530000  1
  H  H119  1  0.02050000  0.80470000  0.63940000  1
  H  H120  1  0.63580000  0.54220000  0.80510000  1
  H  H121  1  0.57730000  0.52840000  0.73690000  1
  H  H122  1  0.69840000  0.50490000  0.64290000  1
  H  H123  1  0.69560000  0.54930000  0.86430000  1
  H  H124  1  0.76470000  0.55160000  0.92250000  1
  H  H125  1  0.86060000  0.52050000  0.80470000  1
  H  H126  1  0.86420000  0.45780000  0.30510000  1
  H  H127  1  0.92270000  0.47160000  0.23690000  1
  H  H128  1  0.80160000  0.49510000  0.14290000  1
  H  H129  1  0.80440000  0.45070000  0.36430000  1
  H  H130  1  0.73530000  0.44840000  0.42250000  1
  H  H131  1  0.63940000  0.47950000  0.30470000  1
  H  H132  1  0.13580000  0.95780000  0.19490000  1
  H  H133  1  0.07730000  0.97160000  0.26310000  1
  H  H134  1  0.19840000  0.99510000  0.35710000  1
  H  H135  1  0.19560000  0.95070000  0.13570000  1
  H  H136  1  0.26470000  0.94840000  0.07750000  1
  H  H137  1  0.36060000  0.97950000  0.19530000  1
  H  H138  1  0.36420000  0.04220000  0.69490000  1
  H  H139  1  0.42270000  0.02840000  0.76310000  1
  H  H140  1  0.30160000  0.00490000  0.85710000  1
  H  H141  1  0.30440000  0.04930000  0.63570000  1
  H  H142  1  0.23530000  0.05160000  0.57750000  1
  H  H143  1  0.13940000  0.02050000  0.69530000  1
  H  H144  1  0.80510000  0.63580000  0.54220000  1
  H  H145  1  0.73690000  0.57730000  0.52840000  1
  H  H146  1  0.64290000  0.69840000  0.50490000  1
  H  H147  1  0.86430000  0.69560000  0.54930000  1
  H  H148  1  0.92250000  0.76470000  0.55160000  1
  H  H149  1  0.80470000  0.86060000  0.52050000  1
  H  H150  1  0.69490000  0.36420000  0.04220000  1
  H  H151  1  0.76310000  0.42270000  0.02840000  1
  H  H152  1  0.85710000  0.30160000  0.00490000  1
  H  H153  1  0.63570000  0.30440000  0.04930000  1
  H  H154  1  0.57750000  0.23530000  0.05160000  1
  H  H155  1  0.69530000  0.13940000  0.02050000  1
  H  H156  1  0.30510000  0.86420000  0.45780000  1
  H  H157  1  0.23690000  0.92270000  0.47160000  1
  H  H158  1  0.14290000  0.80160000  0.49510000  1
  H  H159  1  0.36430000  0.80440000  0.45070000  1
  H  H160  1  0.42250000  0.73530000  0.44840000  1
  H  H161  1  0.30470000  0.63940000  0.47950000  1
  H  H162  1  0.19490000  0.13580000  0.95780000  1
  H  H163  1  0.26310000  0.07730000  0.97160000  1
  H  H164  1  0.35710000  0.19840000  0.99510000  1
  H  H165  1  0.13570000  0.19560000  0.95070000  1
  H  H166  1  0.07750000  0.26470000  0.94840000  1
  H  H167  1  0.19530000  0.36060000  0.97950000  1
  H  H168  1  0.54220000  0.80510000  0.63580000  1
  H  H169  1  0.52840000  0.73690000  0.57730000  1
  H  H170  1  0.50490000  0.64290000  0.69840000  1
  H  H171  1  0.54930000  0.86430000  0.69560000  1
  H  H172  1  0.55160000  0.92250000  0.76470000  1
  H  H173  1  0.52050000  0.80470000  0.86060000  1
  H  H174  1  0.04220000  0.69490000  0.36420000  1
  H  H175  1  0.02840000  0.76310000  0.42270000  1
  H  H176  1  0.00490000  0.85710000  0.30160000  1
  H  H177  1  0.04930000  0.63570000  0.30440000  1
  H  H178  1  0.05160000  0.57750000  0.23530000  1
  H  H179  1  0.02050000  0.69530000  0.13940000  1
  H  H180  1  0.45780000  0.30510000  0.86420000  1
  H  H181  1  0.47160000  0.23690000  0.92270000  1
  H  H182  1  0.49510000  0.14290000  0.80160000  1
  H  H183  1  0.45070000  0.36430000  0.80440000  1
  H  H184  1  0.44840000  0.42250000  0.73530000  1
  H  H185  1  0.47950000  0.30470000  0.63940000  1
  H  H186  1  0.95780000  0.19490000  0.13580000  1
  H  H187  1  0.97160000  0.26310000  0.07730000  1
  H  H188  1  0.99510000  0.35710000  0.19840000  1
  H  H189  1  0.95070000  0.13570000  0.19560000  1
  H  H190  1  0.94840000  0.07750000  0.26470000  1
  H  H191  1  0.97950000  0.19530000  0.36060000  1
  C  C192  1  0.30057000  0.47142000  0.23836000  1
  C  C193  1  0.35234000  0.46640000  0.22833000  1
  C  C194  1  0.38672000  0.47410000  0.26865000  1
  C  C195  1  0.36765000  0.48555000  0.31693000  1
  C  C196  1  0.31475000  0.48792000  0.32384000  1
  C  C197  1  0.26077000  0.46700000  0.19800000  1
  C  C198  1  0.27034000  0.45670000  0.14722000  1
  C  C199  1  0.22955000  0.45520000  0.11284000  1
  C  C200  1  0.18034000  0.46367000  0.13117000  1
  C  C201  1  0.17322000  0.47388000  0.18279000  1
  C  C202  1  0.40197000  0.49347000  0.36174000  1
  C  C203  1  0.13504000  0.46551000  0.09665000  1
  C  C204  1  0.19943000  0.52858000  0.73836000  1
  C  C205  1  0.14766000  0.53360000  0.72833000  1
  C  C206  1  0.11328000  0.52590000  0.76865000  1
  C  C207  1  0.13235000  0.51445000  0.81693000  1
  C  C208  1  0.18525000  0.51208000  0.82384000  1
  C  C209  1  0.23923000  0.53300000  0.69800000  1
  C  C210  1  0.22966000  0.54330000  0.64722000  1
  C  C211  1  0.27045000  0.54480000  0.61284000  1
  C  C212  1  0.31966000  0.53633000  0.63117000  1
  C  C213  1  0.32678000  0.52612000  0.68279000  1
  C  C214  1  0.09803000  0.50653000  0.86174000  1
  C  C215  1  0.36496000  0.53449000  0.59665000  1
  C  C216  1  0.80057000  0.02858000  0.76164000  1
  C  C217  1  0.85234000  0.03360000  0.77167000  1
  C  C218  1  0.88672000  0.02590000  0.73135000  1
  C  C219  1  0.86765000  0.01445000  0.68307000  1
  C  C220  1  0.81475000  0.01208000  0.67616000  1
  C  C221  1  0.76077000  0.03300000  0.80200000  1
  C  C222  1  0.77034000  0.04330000  0.85278000  1
  C  C223  1  0.72955000  0.04480000  0.88716000  1
  C  C224  1  0.68034000  0.03633000  0.86883000  1
  C  C225  1  0.67322000  0.02612000  0.81721000  1
  C  C226  1  0.90197000  0.00653000  0.63826000  1
  C  C227  1  0.63504000  0.03449000  0.90335000  1
  C  C228  1  0.69943000  0.97142000  0.26164000  1
  C  C229  1  0.64766000  0.96640000  0.27167000  1
  C  C230  1  0.61328000  0.97410000  0.23135000  1
  C  C231  1  0.63235000  0.98555000  0.18307000  1
  C  C232  1  0.68525000  0.98792000  0.17616000  1
  C  C233  1  0.73923000  0.96700000  0.30200000  1
  C  C234  1  0.72966000  0.95670000  0.35278000  1
  C  C235  1  0.77045000  0.95520000  0.38716000  1
  C  C236  1  0.81966000  0.96367000  0.36883000  1
  C  C237  1  0.82678000  0.97388000  0.31721000  1
  C  C238  1  0.59803000  0.99347000  0.13826000  1
  C  C239  1  0.86496000  0.96551000  0.40335000  1
  C  C240  1  0.23836000  0.30057000  0.47142000  1
  C  C241  1  0.22833000  0.35234000  0.46640000  1
  C  C242  1  0.26865000  0.38672000  0.47410000  1
  C  C243  1  0.31693000  0.36765000  0.48555000  1
  C  C244  1  0.32384000  0.31475000  0.48792000  1
  C  C245  1  0.19800000  0.26077000  0.46700000  1
  C  C246  1  0.14722000  0.27034000  0.45670000  1
  C  C247  1  0.11284000  0.22955000  0.45520000  1
  C  C248  1  0.13117000  0.18034000  0.46367000  1
  C  C249  1  0.18279000  0.17322000  0.47388000  1
  C  C250  1  0.36174000  0.40197000  0.49347000  1
  C  C251  1  0.09665000  0.13504000  0.46551000  1
  C  C252  1  0.26164000  0.69943000  0.97142000  1
  C  C253  1  0.27167000  0.64766000  0.96640000  1
  C  C254  1  0.23135000  0.61328000  0.97410000  1
  C  C255  1  0.18307000  0.63235000  0.98555000  1
  C  C256  1  0.17616000  0.68525000  0.98792000  1
  C  C257  1  0.30200000  0.73923000  0.96700000  1
  C  C258  1  0.35278000  0.72966000  0.95670000  1
  C  C259  1  0.38716000  0.77045000  0.95520000  1
  C  C260  1  0.36883000  0.81966000  0.96367000  1
  C  C261  1  0.31721000  0.82678000  0.97388000  1
  C  C262  1  0.13826000  0.59803000  0.99347000  1
  C  C263  1  0.40335000  0.86496000  0.96551000  1
  C  C264  1  0.73836000  0.19943000  0.52858000  1
  C  C265  1  0.72833000  0.14766000  0.53360000  1
  C  C266  1  0.76865000  0.11328000  0.52590000  1
  C  C267  1  0.81693000  0.13235000  0.51445000  1
  C  C268  1  0.82384000  0.18525000  0.51208000  1
  C  C269  1  0.69800000  0.23923000  0.53300000  1
  C  C270  1  0.64722000  0.22966000  0.54330000  1
  C  C271  1  0.61284000  0.27045000  0.54480000  1
  C  C272  1  0.63117000  0.31966000  0.53633000  1
  C  C273  1  0.68279000  0.32678000  0.52612000  1
  C  C274  1  0.86174000  0.09803000  0.50653000  1
  C  C275  1  0.59665000  0.36496000  0.53449000  1
  C  C276  1  0.76164000  0.80057000  0.02858000  1
  C  C277  1  0.77167000  0.85234000  0.03360000  1
  C  C278  1  0.73135000  0.88672000  0.02590000  1
  C  C279  1  0.68307000  0.86765000  0.01445000  1
  C  C280  1  0.67616000  0.81475000  0.01208000  1
  C  C281  1  0.80200000  0.76077000  0.03300000  1
  C  C282  1  0.85278000  0.77034000  0.04330000  1
  C  C283  1  0.88716000  0.72955000  0.04480000  1
  C  C284  1  0.86883000  0.68034000  0.03633000  1
  C  C285  1  0.81721000  0.67322000  0.02612000  1
  C  C286  1  0.63826000  0.90197000  0.00653000  1
  C  C287  1  0.90335000  0.63504000  0.03449000  1
  C  C288  1  0.47142000  0.23836000  0.30057000  1
  C  C289  1  0.46640000  0.22833000  0.35234000  1
  C  C290  1  0.47410000  0.26865000  0.38672000  1
  C  C291  1  0.48555000  0.31693000  0.36765000  1
  C  C292  1  0.48792000  0.32384000  0.31475000  1
  C  C293  1  0.46700000  0.19800000  0.26077000  1
  C  C294  1  0.45670000  0.14722000  0.27034000  1
  C  C295  1  0.45520000  0.11284000  0.22955000  1
  C  C296  1  0.46367000  0.13117000  0.18034000  1
  C  C297  1  0.47388000  0.18279000  0.17322000  1
  C  C298  1  0.49347000  0.36174000  0.40197000  1
  C  C299  1  0.46551000  0.09665000  0.13504000  1
  C  C300  1  0.97142000  0.26164000  0.69943000  1
  C  C301  1  0.96640000  0.27167000  0.64766000  1
  C  C302  1  0.97410000  0.23135000  0.61328000  1
  C  C303  1  0.98555000  0.18307000  0.63235000  1
  C  C304  1  0.98792000  0.17616000  0.68525000  1
  C  C305  1  0.96700000  0.30200000  0.73923000  1
  C  C306  1  0.95670000  0.35278000  0.72966000  1
  C  C307  1  0.95520000  0.38716000  0.77045000  1
  C  C308  1  0.96367000  0.36883000  0.81966000  1
  C  C309  1  0.97388000  0.31721000  0.82678000  1
  C  C310  1  0.99347000  0.13826000  0.59803000  1
  C  C311  1  0.96551000  0.40335000  0.86496000  1
  C  C312  1  0.52858000  0.73836000  0.19943000  1
  C  C313  1  0.53360000  0.72833000  0.14766000  1
  C  C314  1  0.52590000  0.76865000  0.11328000  1
  C  C315  1  0.51445000  0.81693000  0.13235000  1
  C  C316  1  0.51208000  0.82384000  0.18525000  1
  C  C317  1  0.53300000  0.69800000  0.23923000  1
  C  C318  1  0.54330000  0.64722000  0.22966000  1
  C  C319  1  0.54480000  0.61284000  0.27045000  1
  C  C320  1  0.53633000  0.63117000  0.31966000  1
  C  C321  1  0.52612000  0.68279000  0.32678000  1
  C  C322  1  0.50653000  0.86174000  0.09803000  1
  C  C323  1  0.53449000  0.59665000  0.36496000  1
  C  C324  1  0.02858000  0.76164000  0.80057000  1
  C  C325  1  0.03360000  0.77167000  0.85234000  1
  C  C326  1  0.02590000  0.73135000  0.88672000  1
  C  C327  1  0.01445000  0.68307000  0.86765000  1
  C  C328  1  0.01208000  0.67616000  0.81475000  1
  C  C329  1  0.03300000  0.80200000  0.76077000  1
  C  C330  1  0.04330000  0.85278000  0.77034000  1
  C  C331  1  0.04480000  0.88716000  0.72955000  1
  C  C332  1  0.03633000  0.86883000  0.68034000  1
  C  C333  1  0.02612000  0.81721000  0.67322000  1
  C  C334  1  0.00653000  0.63826000  0.90197000  1
  C  C335  1  0.03449000  0.90335000  0.63504000  1
  C  C336  1  0.69943000  0.52858000  0.76164000  1
  C  C337  1  0.64766000  0.53360000  0.77167000  1
  C  C338  1  0.61328000  0.52590000  0.73135000  1
  C  C339  1  0.63235000  0.51445000  0.68307000  1
  C  C340  1  0.68525000  0.51208000  0.67616000  1
  C  C341  1  0.73923000  0.53300000  0.80200000  1
  C  C342  1  0.72966000  0.54330000  0.85278000  1
  C  C343  1  0.77045000  0.54480000  0.88716000  1
  C  C344  1  0.81966000  0.53633000  0.86883000  1
  C  C345  1  0.82678000  0.52612000  0.81721000  1
  C  C346  1  0.59803000  0.50653000  0.63826000  1
  C  C347  1  0.86496000  0.53449000  0.90335000  1
  C  C348  1  0.80057000  0.47142000  0.26164000  1
  C  C349  1  0.85234000  0.46640000  0.27167000  1
  C  C350  1  0.88672000  0.47410000  0.23135000  1
  C  C351  1  0.86765000  0.48555000  0.18307000  1
  C  C352  1  0.81475000  0.48792000  0.17616000  1
  C  C353  1  0.76077000  0.46700000  0.30200000  1
  C  C354  1  0.77034000  0.45670000  0.35278000  1
  C  C355  1  0.72955000  0.45520000  0.38716000  1
  C  C356  1  0.68034000  0.46367000  0.36883000  1
  C  C357  1  0.67322000  0.47388000  0.31721000  1
  C  C358  1  0.90197000  0.49347000  0.13826000  1
  C  C359  1  0.63504000  0.46551000  0.40335000  1
  C  C360  1  0.19943000  0.97142000  0.23836000  1
  C  C361  1  0.14766000  0.96640000  0.22833000  1
  C  C362  1  0.11328000  0.97410000  0.26865000  1
  C  C363  1  0.13235000  0.98555000  0.31693000  1
  C  C364  1  0.18525000  0.98792000  0.32384000  1
  C  C365  1  0.23923000  0.96700000  0.19800000  1
  C  C366  1  0.22966000  0.95670000  0.14722000  1
  C  C367  1  0.27045000  0.95520000  0.11284000  1
  C  C368  1  0.31966000  0.96367000  0.13117000  1
  C  C369  1  0.32678000  0.97388000  0.18279000  1
  C  C370  1  0.09803000  0.99347000  0.36174000  1
  C  C371  1  0.36496000  0.96551000  0.09665000  1
  C  C372  1  0.30057000  0.02858000  0.73836000  1
  C  C373  1  0.35234000  0.03360000  0.72833000  1
  C  C374  1  0.38672000  0.02590000  0.76865000  1
  C  C375  1  0.36765000  0.01445000  0.81693000  1
  C  C376  1  0.31475000  0.01208000  0.82384000  1
  C  C377  1  0.26077000  0.03300000  0.69800000  1
  C  C378  1  0.27034000  0.04330000  0.64722000  1
  C  C379  1  0.22955000  0.04480000  0.61284000  1
  C  C380  1  0.18034000  0.03633000  0.63117000  1
  C  C381  1  0.17322000  0.02612000  0.68279000  1
  C  C382  1  0.40197000  0.00653000  0.86174000  1
  C  C383  1  0.13504000  0.03449000  0.59665000  1
  C  C384  1  0.76164000  0.69943000  0.52858000  1
  C  C385  1  0.77167000  0.64766000  0.53360000  1
  C  C386  1  0.73135000  0.61328000  0.52590000  1
  C  C387  1  0.68307000  0.63235000  0.51445000  1
  C  C388  1  0.67616000  0.68525000  0.51208000  1
  C  C389  1  0.80200000  0.73923000  0.53300000  1
  C  C390  1  0.85278000  0.72966000  0.54330000  1
  C  C391  1  0.88716000  0.77045000  0.54480000  1
  C  C392  1  0.86883000  0.81966000  0.53633000  1
  C  C393  1  0.81721000  0.82678000  0.52612000  1
  C  C394  1  0.63826000  0.59803000  0.50653000  1
  C  C395  1  0.90335000  0.86496000  0.53449000  1
  C  C396  1  0.73836000  0.30057000  0.02858000  1
  C  C397  1  0.72833000  0.35234000  0.03360000  1
  C  C398  1  0.76865000  0.38672000  0.02590000  1
  C  C399  1  0.81693000  0.36765000  0.01445000  1
  C  C400  1  0.82384000  0.31475000  0.01208000  1
  C  C401  1  0.69800000  0.26077000  0.03300000  1
  C  C402  1  0.64722000  0.27034000  0.04330000  1
  C  C403  1  0.61284000  0.22955000  0.04480000  1
  C  C404  1  0.63117000  0.18034000  0.03633000  1
  C  C405  1  0.68279000  0.17322000  0.02612000  1
  C  C406  1  0.86174000  0.40197000  0.00653000  1
  C  C407  1  0.59665000  0.13504000  0.03449000  1
  C  C408  1  0.26164000  0.80057000  0.47142000  1
  C  C409  1  0.27167000  0.85234000  0.46640000  1
  C  C410  1  0.23135000  0.88672000  0.47410000  1
  C  C411  1  0.18307000  0.86765000  0.48555000  1
  C  C412  1  0.17616000  0.81475000  0.48792000  1
  C  C413  1  0.30200000  0.76077000  0.46700000  1
  C  C414  1  0.35278000  0.77034000  0.45670000  1
  C  C415  1  0.38716000  0.72955000  0.45520000  1
  C  C416  1  0.36883000  0.68034000  0.46367000  1
  C  C417  1  0.31721000  0.67322000  0.47388000  1
  C  C418  1  0.13826000  0.90197000  0.49347000  1
  C  C419  1  0.40335000  0.63504000  0.46551000  1
  C  C420  1  0.23836000  0.19943000  0.97142000  1
  C  C421  1  0.22833000  0.14766000  0.96640000  1
  C  C422  1  0.26865000  0.11328000  0.97410000  1
  C  C423  1  0.31693000  0.13235000  0.98555000  1
  C  C424  1  0.32384000  0.18525000  0.98792000  1
  C  C425  1  0.19800000  0.23923000  0.96700000  1
  C  C426  1  0.14722000  0.22966000  0.95670000  1
  C  C427  1  0.11284000  0.27045000  0.95520000  1
  C  C428  1  0.13117000  0.31966000  0.96367000  1
  C  C429  1  0.18279000  0.32678000  0.97388000  1
  C  C430  1  0.36174000  0.09803000  0.99347000  1
  C  C431  1  0.09665000  0.36496000  0.96551000  1
  C  C432  1  0.52858000  0.76164000  0.69943000  1
  C  C433  1  0.53360000  0.77167000  0.64766000  1
  C  C434  1  0.52590000  0.73135000  0.61328000  1
  C  C435  1  0.51445000  0.68307000  0.63235000  1
  C  C436  1  0.51208000  0.67616000  0.68525000  1
  C  C437  1  0.53300000  0.80200000  0.73923000  1
  C  C438  1  0.54330000  0.85278000  0.72966000  1
  C  C439  1  0.54480000  0.88716000  0.77045000  1
  C  C440  1  0.53633000  0.86883000  0.81966000  1
  C  C441  1  0.52612000  0.81721000  0.82678000  1
  C  C442  1  0.50653000  0.63826000  0.59803000  1
  C  C443  1  0.53449000  0.90335000  0.86496000  1
  C  C444  1  0.02858000  0.73836000  0.30057000  1
  C  C445  1  0.03360000  0.72833000  0.35234000  1
  C  C446  1  0.02590000  0.76865000  0.38672000  1
  C  C447  1  0.01445000  0.81693000  0.36765000  1
  C  C448  1  0.01208000  0.82384000  0.31475000  1
  C  C449  1  0.03300000  0.69800000  0.26077000  1
  C  C450  1  0.04330000  0.64722000  0.27034000  1
  C  C451  1  0.04480000  0.61284000  0.22955000  1
  C  C452  1  0.03633000  0.63117000  0.18034000  1
  C  C453  1  0.02612000  0.68279000  0.17322000  1
  C  C454  1  0.00653000  0.86174000  0.40197000  1
  C  C455  1  0.03449000  0.59665000  0.13504000  1
  C  C456  1  0.47142000  0.26164000  0.80057000  1
  C  C457  1  0.46640000  0.27167000  0.85234000  1
  C  C458  1  0.47410000  0.23135000  0.88672000  1
  C  C459  1  0.48555000  0.18307000  0.86765000  1
  C  C460  1  0.48792000  0.17616000  0.81475000  1
  C  C461  1  0.46700000  0.30200000  0.76077000  1
  C  C462  1  0.45670000  0.35278000  0.77034000  1
  C  C463  1  0.45520000  0.38716000  0.72955000  1
  C  C464  1  0.46367000  0.36883000  0.68034000  1
  C  C465  1  0.47388000  0.31721000  0.67322000  1
  C  C466  1  0.49347000  0.13826000  0.90197000  1
  C  C467  1  0.46551000  0.40335000  0.63504000  1
  C  C468  1  0.97142000  0.23836000  0.19943000  1
  C  C469  1  0.96640000  0.22833000  0.14766000  1
  C  C470  1  0.97410000  0.26865000  0.11328000  1
  C  C471  1  0.98555000  0.31693000  0.13235000  1
  C  C472  1  0.98792000  0.32384000  0.18525000  1
  C  C473  1  0.96700000  0.19800000  0.23923000  1
  C  C474  1  0.95670000  0.14722000  0.22966000  1
  C  C475  1  0.95520000  0.11284000  0.27045000  1
  C  C476  1  0.96367000  0.13117000  0.31966000  1
  C  C477  1  0.97388000  0.18279000  0.32678000  1
  C  C478  1  0.99347000  0.36174000  0.09803000  1
  C  C479  1  0.96551000  0.09665000  0.36496000  1
  N  N480  1  0.28219000  0.48054000  0.28557000  1
  N  N481  1  0.21265000  0.47610000  0.21564000  1
  N  N482  1  0.21781000  0.51946000  0.78557000  1
  N  N483  1  0.28735000  0.52390000  0.71564000  1
  N  N484  1  0.78219000  0.01946000  0.71443000  1
  N  N485  1  0.71265000  0.02390000  0.78436000  1
  N  N486  1  0.71781000  0.98054000  0.21443000  1
  N  N487  1  0.78735000  0.97610000  0.28436000  1
  N  N488  1  0.28557000  0.28219000  0.48054000  1
  N  N489  1  0.21564000  0.21265000  0.47610000  1
  N  N490  1  0.21443000  0.71781000  0.98054000  1
  N  N491  1  0.28436000  0.78735000  0.97610000  1
  N  N492  1  0.78557000  0.21781000  0.51946000  1
  N  N493  1  0.71564000  0.28735000  0.52390000  1
  N  N494  1  0.71443000  0.78219000  0.01946000  1
  N  N495  1  0.78436000  0.71265000  0.02390000  1
  N  N496  1  0.48054000  0.28557000  0.28219000  1
  N  N497  1  0.47610000  0.21564000  0.21265000  1
  N  N498  1  0.98054000  0.21443000  0.71781000  1
  N  N499  1  0.97610000  0.28436000  0.78735000  1
  N  N500  1  0.51946000  0.78557000  0.21781000  1
  N  N501  1  0.52390000  0.71564000  0.28735000  1
  N  N502  1  0.01946000  0.71443000  0.78219000  1
  N  N503  1  0.02390000  0.78436000  0.71265000  1
  N  N504  1  0.71781000  0.51946000  0.71443000  1
  N  N505  1  0.78735000  0.52390000  0.78436000  1
  N  N506  1  0.78219000  0.48054000  0.21443000  1
  N  N507  1  0.71265000  0.47610000  0.28436000  1
  N  N508  1  0.21781000  0.98054000  0.28557000  1
  N  N509  1  0.28735000  0.97610000  0.21564000  1
  N  N510  1  0.28219000  0.01946000  0.78557000  1
  N  N511  1  0.21265000  0.02390000  0.71564000  1
  N  N512  1  0.71443000  0.71781000  0.51946000  1
  N  N513  1  0.78436000  0.78735000  0.52390000  1
  N  N514  1  0.78557000  0.28219000  0.01946000  1
  N  N515  1  0.71564000  0.21265000  0.02390000  1
  N  N516  1  0.21443000  0.78219000  0.48054000  1
  N  N517  1  0.28436000  0.71265000  0.47610000  1
  N  N518  1  0.28557000  0.21781000  0.98054000  1
  N  N519  1  0.21564000  0.28735000  0.97610000  1
  N  N520  1  0.51946000  0.71443000  0.71781000  1
  N  N521  1  0.52390000  0.78436000  0.78735000  1
  N  N522  1  0.01946000  0.78557000  0.28219000  1
  N  N523  1  0.02390000  0.71564000  0.21265000  1
  N  N524  1  0.48054000  0.21443000  0.78219000  1
  N  N525  1  0.47610000  0.28436000  0.71265000  1
  N  N526  1  0.98054000  0.28557000  0.21781000  1
  N  N527  1  0.97610000  0.21564000  0.28735000  1
  Cl  Cl528  1  0.13111000  0.52495000  0.28931000  1
  Cl  Cl529  1  0.20369000  0.46074000  0.37270000  1
  Cl  Cl530  1  0.36889000  0.47505000  0.78931000  1
  Cl  Cl531  1  0.29631000  0.53926000  0.87270000  1
  Cl  Cl532  1  0.63111000  0.97505000  0.71069000  1
  Cl  Cl533  1  0.70369000  0.03926000  0.62730000  1
  Cl  Cl534  1  0.86889000  0.02495000  0.21069000  1
  Cl  Cl535  1  0.79631000  0.96074000  0.12730000  1
  Cl  Cl536  1  0.28931000  0.13111000  0.52495000  1
  Cl  Cl537  1  0.37270000  0.20369000  0.46074000  1
  Cl  Cl538  1  0.21069000  0.86889000  0.02495000  1
  Cl  Cl539  1  0.12730000  0.79631000  0.96074000  1
  Cl  Cl540  1  0.78931000  0.36889000  0.47505000  1
  Cl  Cl541  1  0.87270000  0.29631000  0.53926000  1
  Cl  Cl542  1  0.71069000  0.63111000  0.97505000  1
  Cl  Cl543  1  0.62730000  0.70369000  0.03926000  1
  Cl  Cl544  1  0.52495000  0.28931000  0.13111000  1
  Cl  Cl545  1  0.46074000  0.37270000  0.20369000  1
  Cl  Cl546  1  0.02495000  0.21069000  0.86889000  1
  Cl  Cl547  1  0.96074000  0.12730000  0.79631000  1
  Cl  Cl548  1  0.47505000  0.78931000  0.36889000  1
  Cl  Cl549  1  0.53926000  0.87270000  0.29631000  1
  Cl  Cl550  1  0.97505000  0.71069000  0.63111000  1
  Cl  Cl551  1  0.03926000  0.62730000  0.70369000  1
  Cl  Cl552  1  0.86889000  0.47505000  0.71069000  1
  Cl  Cl553  1  0.79631000  0.53926000  0.62730000  1
  Cl  Cl554  1  0.63111000  0.52495000  0.21069000  1
  Cl  Cl555  1  0.70369000  0.46074000  0.12730000  1
  Cl  Cl556  1  0.36889000  0.02495000  0.28931000  1
  Cl  Cl557  1  0.29631000  0.96074000  0.37270000  1
  Cl  Cl558  1  0.13111000  0.97505000  0.78931000  1
  Cl  Cl559  1  0.20369000  0.03926000  0.87270000  1
  Cl  Cl560  1  0.71069000  0.86889000  0.47505000  1
  Cl  Cl561  1  0.62730000  0.79631000  0.53926000  1
  Cl  Cl562  1  0.78931000  0.13111000  0.97505000  1
  Cl  Cl563  1  0.87270000  0.20369000  0.03926000  1
  Cl  Cl564  1  0.21069000  0.63111000  0.52495000  1
  Cl  Cl565  1  0.12730000  0.70369000  0.46074000  1
  Cl  Cl566  1  0.28931000  0.36889000  0.02495000  1
  Cl  Cl567  1  0.37270000  0.29631000  0.96074000  1
  Cl  Cl568  1  0.47505000  0.71069000  0.86889000  1
  Cl  Cl569  1  0.53926000  0.62730000  0.79631000  1
  Cl  Cl570  1  0.97505000  0.78931000  0.13111000  1
  Cl  Cl571  1  0.03926000  0.87270000  0.20369000  1
  Cl  Cl572  1  0.52495000  0.21069000  0.63111000  1
  Cl  Cl573  1  0.46074000  0.12730000  0.70369000  1
  Cl  Cl574  1  0.02495000  0.28931000  0.36889000  1
  Cl  Cl575  1  0.96074000  0.37270000  0.29631000  1
  O  O576  1  0.38072000  0.50620000  0.40283000  1
  O  O577  1  0.09213000  0.46600000  0.11784000  1
  O  O578  1  0.14289000  0.46699000  0.04957000  1
  O  O579  1  0.45200000  0.49460000  0.35300000  1
  O  O580  1  0.55105000  0.43034000  0.46566000  1
  O  O581  1  0.44607000  0.44607000  0.44607000  1
  O  O582  1  0.11928000  0.49380000  0.90283000  1
  O  O583  1  0.40787000  0.53400000  0.61784000  1
  O  O584  1  0.35711000  0.53301000  0.54957000  1
  O  O585  1  0.04800000  0.50540000  0.85300000  1
  O  O586  1  0.94895000  0.56966000  0.96566000  1
  O  O587  1  0.05393000  0.55393000  0.94607000  1
  O  O588  1  0.88072000  0.99380000  0.59717000  1
  O  O589  1  0.59213000  0.03400000  0.88216000  1
  O  O590  1  0.64289000  0.03301000  0.95043000  1
  O  O591  1  0.95200000  0.00540000  0.64700000  1
  O  O592  1  0.05105000  0.06966000  0.53434000  1
  O  O593  1  0.94607000  0.05393000  0.55393000  1
  O  O594  1  0.61928000  0.00620000  0.09717000  1
  O  O595  1  0.90787000  0.96600000  0.38216000  1
  O  O596  1  0.85711000  0.96699000  0.45043000  1
  O  O597  1  0.54800000  0.99460000  0.14700000  1
  O  O598  1  0.44895000  0.93034000  0.03434000  1
  O  O599  1  0.55393000  0.94607000  0.05393000  1
  O  O600  1  0.40283000  0.38072000  0.50620000  1
  O  O601  1  0.11784000  0.09213000  0.46600000  1
  O  O602  1  0.04957000  0.14289000  0.46699000  1
  O  O603  1  0.35300000  0.45200000  0.49460000  1
  O  O604  1  0.46566000  0.55105000  0.43034000  1
  O  O605  1  0.09717000  0.61928000  0.00620000  1
  O  O606  1  0.38216000  0.90787000  0.96600000  1
  O  O607  1  0.45043000  0.85711000  0.96699000  1
  O  O608  1  0.14700000  0.54800000  0.99460000  1
  O  O609  1  0.03434000  0.44895000  0.93034000  1
  O  O610  1  0.90283000  0.11928000  0.49380000  1
  O  O611  1  0.61784000  0.40787000  0.53400000  1
  O  O612  1  0.54957000  0.35711000  0.53301000  1
  O  O613  1  0.85300000  0.04800000  0.50540000  1
  O  O614  1  0.96566000  0.94895000  0.56966000  1
  O  O615  1  0.59717000  0.88072000  0.99380000  1
  O  O616  1  0.88216000  0.59213000  0.03400000  1
  O  O617  1  0.95043000  0.64289000  0.03301000  1
  O  O618  1  0.64700000  0.95200000  0.00540000  1
  O  O619  1  0.53434000  0.05105000  0.06966000  1
  O  O620  1  0.50620000  0.40283000  0.38072000  1
  O  O621  1  0.46600000  0.11784000  0.09213000  1
  O  O622  1  0.46699000  0.04957000  0.14289000  1
  O  O623  1  0.49460000  0.35300000  0.45200000  1
  O  O624  1  0.43034000  0.46566000  0.55105000  1
  O  O625  1  0.00620000  0.09717000  0.61928000  1
  O  O626  1  0.96600000  0.38216000  0.90787000  1
  O  O627  1  0.96699000  0.45043000  0.85711000  1
  O  O628  1  0.99460000  0.14700000  0.54800000  1
  O  O629  1  0.93034000  0.03434000  0.44895000  1
  O  O630  1  0.49380000  0.90283000  0.11928000  1
  O  O631  1  0.53400000  0.61784000  0.40787000  1
  O  O632  1  0.53301000  0.54957000  0.35711000  1
  O  O633  1  0.50540000  0.85300000  0.04800000  1
  O  O634  1  0.56966000  0.96566000  0.94895000  1
  O  O635  1  0.99380000  0.59717000  0.88072000  1
  O  O636  1  0.03400000  0.88216000  0.59213000  1
  O  O637  1  0.03301000  0.95043000  0.64289000  1
  O  O638  1  0.00540000  0.64700000  0.95200000  1
  O  O639  1  0.06966000  0.53434000  0.05105000  1
  O  O640  1  0.61928000  0.49380000  0.59717000  1
  O  O641  1  0.90787000  0.53400000  0.88216000  1
  O  O642  1  0.85711000  0.53301000  0.95043000  1
  O  O643  1  0.54800000  0.50540000  0.64700000  1
  O  O644  1  0.44895000  0.56966000  0.53434000  1
  O  O645  1  0.55393000  0.55393000  0.55393000  1
  O  O646  1  0.88072000  0.50620000  0.09717000  1
  O  O647  1  0.59213000  0.46600000  0.38216000  1
  O  O648  1  0.64289000  0.46699000  0.45043000  1
  O  O649  1  0.95200000  0.49460000  0.14700000  1
  O  O650  1  0.05105000  0.43034000  0.03434000  1
  O  O651  1  0.94607000  0.44607000  0.05393000  1
  O  O652  1  0.11928000  0.00620000  0.40283000  1
  O  O653  1  0.40787000  0.96600000  0.11784000  1
  O  O654  1  0.35711000  0.96699000  0.04957000  1
  O  O655  1  0.04800000  0.99460000  0.35300000  1
  O  O656  1  0.94895000  0.93034000  0.46566000  1
  O  O657  1  0.05393000  0.94607000  0.44607000  1
  O  O658  1  0.38072000  0.99380000  0.90283000  1
  O  O659  1  0.09213000  0.03400000  0.61784000  1
  O  O660  1  0.14289000  0.03301000  0.54957000  1
  O  O661  1  0.45200000  0.00540000  0.85300000  1
  O  O662  1  0.55105000  0.06966000  0.96566000  1
  O  O663  1  0.44607000  0.05393000  0.94607000  1
  O  O664  1  0.59717000  0.61928000  0.49380000  1
  O  O665  1  0.88216000  0.90787000  0.53400000  1
  O  O666  1  0.95043000  0.85711000  0.53301000  1
  O  O667  1  0.64700000  0.54800000  0.50540000  1
  O  O668  1  0.53434000  0.44895000  0.56966000  1
  O  O669  1  0.90283000  0.38072000  0.99380000  1
  O  O670  1  0.61784000  0.09213000  0.03400000  1
  O  O671  1  0.54957000  0.14289000  0.03301000  1
  O  O672  1  0.85300000  0.45200000  0.00540000  1
  O  O673  1  0.96566000  0.55105000  0.06966000  1
  O  O674  1  0.09717000  0.88072000  0.50620000  1
  O  O675  1  0.38216000  0.59213000  0.46600000  1
  O  O676  1  0.45043000  0.64289000  0.46699000  1
  O  O677  1  0.14700000  0.95200000  0.49460000  1
  O  O678  1  0.03434000  0.05105000  0.43034000  1
  O  O679  1  0.40283000  0.11928000  0.00620000  1
  O  O680  1  0.11784000  0.40787000  0.96600000  1
  O  O681  1  0.04957000  0.35711000  0.96699000  1
  O  O682  1  0.35300000  0.04800000  0.99460000  1
  O  O683  1  0.46566000  0.94895000  0.93034000  1
  O  O684  1  0.49380000  0.59717000  0.61928000  1
  O  O685  1  0.53400000  0.88216000  0.90787000  1
  O  O686  1  0.53301000  0.95043000  0.85711000  1
  O  O687  1  0.50540000  0.64700000  0.54800000  1
  O  O688  1  0.56966000  0.53434000  0.44895000  1
  O  O689  1  0.99380000  0.90283000  0.38072000  1
  O  O690  1  0.03400000  0.61784000  0.09213000  1
  O  O691  1  0.03301000  0.54957000  0.14289000  1
  O  O692  1  0.00540000  0.85300000  0.45200000  1
  O  O693  1  0.06966000  0.96566000  0.55105000  1
  O  O694  1  0.50620000  0.09717000  0.88072000  1
  O  O695  1  0.46600000  0.38216000  0.59213000  1
  O  O696  1  0.46699000  0.45043000  0.64289000  1
  O  O697  1  0.49460000  0.14700000  0.95200000  1
  O  O698  1  0.43034000  0.03434000  0.05105000  1
  O  O699  1  0.00620000  0.40283000  0.11928000  1
  O  O700  1  0.96600000  0.11784000  0.40787000  1
  O  O701  1  0.96699000  0.04957000  0.35711000  1
  O  O702  1  0.99460000  0.35300000  0.04800000  1
  O  O703  1  0.93034000  0.46566000  0.94895000  1
