# generated using pymatgen
data_Zr3Cu3H18C36N6Cl3O16
_symmetry_space_group_name_H-M   'P 1'
_cell_length_a   26.14900000
_cell_length_b   26.14900000
_cell_length_c   26.14900000
_cell_angle_alpha   90.00000000
_cell_angle_beta   90.00000000
_cell_angle_gamma   90.00000000
_symmetry_Int_Tables_number   1
_chemical_formula_structural   Zr3Cu3H18C36N6Cl3O16
_chemical_formula_sum   'Zr24 Cu24 H144 C288 N48 Cl24 O128'
_cell_volume   17879.90698595
_cell_formula_units_Z   8
loop_
 _symmetry_equiv_pos_site_id
 _symmetry_equiv_pos_as_xyz
  1  'x, y, z'
loop_
 _atom_site_type_symbol
 _atom_site_label
 _atom_site_symmetry_multiplicity
 _atom_site_fract_x
 _atom_site_fract_y
 _atom_site_fract_z
 _atom_site_occupancy
  Zr  Zr0  1  0.01660000  0.59219000  0.01392000  1
  Zr  Zr1  1  0.48340000  0.40781000  0.51392000  1
  Zr  Zr2  1  0.51660000  0.90781000  0.98608000  1
  Zr  Zr3  1  0.98340000  0.09219000  0.48608000  1
  Zr  Zr4  1  0.01392000  0.01660000  0.59219000  1
  Zr  Zr5  1  0.48608000  0.98340000  0.09219000  1
  Zr  Zr6  1  0.51392000  0.48340000  0.40781000  1
  Zr  Zr7  1  0.98608000  0.51660000  0.90781000  1
  Zr  Zr8  1  0.59219000  0.01392000  0.01660000  1
  Zr  Zr9  1  0.09219000  0.48608000  0.98340000  1
  Zr  Zr10  1  0.40781000  0.51392000  0.48340000  1
  Zr  Zr11  1  0.90781000  0.98608000  0.51660000  1
  Zr  Zr12  1  0.98340000  0.40781000  0.98608000  1
  Zr  Zr13  1  0.51660000  0.59219000  0.48608000  1
  Zr  Zr14  1  0.48340000  0.09219000  0.01392000  1
  Zr  Zr15  1  0.01660000  0.90781000  0.51392000  1
  Zr  Zr16  1  0.98608000  0.98340000  0.40781000  1
  Zr  Zr17  1  0.51392000  0.01660000  0.90781000  1
  Zr  Zr18  1  0.48608000  0.51660000  0.59219000  1
  Zr  Zr19  1  0.01392000  0.48340000  0.09219000  1
  Zr  Zr20  1  0.40781000  0.98608000  0.98340000  1
  Zr  Zr21  1  0.90781000  0.51392000  0.01660000  1
  Zr  Zr22  1  0.59219000  0.48608000  0.51660000  1
  Zr  Zr23  1  0.09219000  0.01392000  0.48340000  1
  Cu  Cu24  1  0.71290000  0.70865000  0.98520000  1
  Cu  Cu25  1  0.78710000  0.29135000  0.48520000  1
  Cu  Cu26  1  0.21290000  0.79135000  0.01480000  1
  Cu  Cu27  1  0.28710000  0.20865000  0.51480000  1
  Cu  Cu28  1  0.98520000  0.71290000  0.70865000  1
  Cu  Cu29  1  0.51480000  0.28710000  0.20865000  1
  Cu  Cu30  1  0.48520000  0.78710000  0.29135000  1
  Cu  Cu31  1  0.01480000  0.21290000  0.79135000  1
  Cu  Cu32  1  0.70865000  0.98520000  0.71290000  1
  Cu  Cu33  1  0.20865000  0.51480000  0.28710000  1
  Cu  Cu34  1  0.29135000  0.48520000  0.78710000  1
  Cu  Cu35  1  0.79135000  0.01480000  0.21290000  1
  Cu  Cu36  1  0.28710000  0.29135000  0.01480000  1
  Cu  Cu37  1  0.21290000  0.70865000  0.51480000  1
  Cu  Cu38  1  0.78710000  0.20865000  0.98520000  1
  Cu  Cu39  1  0.71290000  0.79135000  0.48520000  1
  Cu  Cu40  1  0.01480000  0.28710000  0.29135000  1
  Cu  Cu41  1  0.48520000  0.71290000  0.79135000  1
  Cu  Cu42  1  0.51480000  0.21290000  0.70865000  1
  Cu  Cu43  1  0.98520000  0.78710000  0.20865000  1
  Cu  Cu44  1  0.29135000  0.01480000  0.28710000  1
  Cu  Cu45  1  0.79135000  0.48520000  0.71290000  1
  Cu  Cu46  1  0.70865000  0.51480000  0.21290000  1
  Cu  Cu47  1  0.20865000  0.98520000  0.78710000  1
  H  H48  1  0.80456000  0.63379000  0.00819000  1
  H  H49  1  0.92678000  0.73605000  0.06185000  1
  H  H50  1  0.85801000  0.80714000  0.07066000  1
  H  H51  1  0.80166000  0.85776000  0.07159000  1
  H  H52  1  0.73343000  0.92685000  0.04275000  1
  H  H53  1  0.64388000  0.79998000  0.97772000  1
  H  H54  1  0.69544000  0.36621000  0.50819000  1
  H  H55  1  0.57322000  0.26395000  0.56185000  1
  H  H56  1  0.64199000  0.19286000  0.57066000  1
  H  H57  1  0.69834000  0.14224000  0.57159000  1
  H  H58  1  0.76657000  0.07315000  0.54275000  1
  H  H59  1  0.85612000  0.20002000  0.47772000  1
  H  H60  1  0.30456000  0.86621000  0.99181000  1
  H  H61  1  0.42678000  0.76395000  0.93815000  1
  H  H62  1  0.35801000  0.69286000  0.92934000  1
  H  H63  1  0.30166000  0.64224000  0.92841000  1
  H  H64  1  0.23343000  0.57315000  0.95725000  1
  H  H65  1  0.14388000  0.70002000  0.02228000  1
  H  H66  1  0.19544000  0.13379000  0.49181000  1
  H  H67  1  0.07322000  0.23605000  0.43815000  1
  H  H68  1  0.14199000  0.30714000  0.42934000  1
  H  H69  1  0.19834000  0.35776000  0.42841000  1
  H  H70  1  0.26657000  0.42685000  0.45725000  1
  H  H71  1  0.35612000  0.29998000  0.52228000  1
  H  H72  1  0.00819000  0.80456000  0.63379000  1
  H  H73  1  0.06185000  0.92678000  0.73605000  1
  H  H74  1  0.07066000  0.85801000  0.80714000  1
  H  H75  1  0.07159000  0.80166000  0.85776000  1
  H  H76  1  0.04275000  0.73343000  0.92685000  1
  H  H77  1  0.97772000  0.64388000  0.79998000  1
  H  H78  1  0.49181000  0.19544000  0.13379000  1
  H  H79  1  0.43815000  0.07322000  0.23605000  1
  H  H80  1  0.42934000  0.14199000  0.30714000  1
  H  H81  1  0.42841000  0.19834000  0.35776000  1
  H  H82  1  0.45725000  0.26657000  0.42685000  1
  H  H83  1  0.52228000  0.35612000  0.29998000  1
  H  H84  1  0.50819000  0.69544000  0.36621000  1
  H  H85  1  0.56185000  0.57322000  0.26395000  1
  H  H86  1  0.57066000  0.64199000  0.19286000  1
  H  H87  1  0.57159000  0.69834000  0.14224000  1
  H  H88  1  0.54275000  0.76657000  0.07315000  1
  H  H89  1  0.47772000  0.85612000  0.20002000  1
  H  H90  1  0.99181000  0.30456000  0.86621000  1
  H  H91  1  0.93815000  0.42678000  0.76395000  1
  H  H92  1  0.92934000  0.35801000  0.69286000  1
  H  H93  1  0.92841000  0.30166000  0.64224000  1
  H  H94  1  0.95725000  0.23343000  0.57315000  1
  H  H95  1  0.02228000  0.14388000  0.70002000  1
  H  H96  1  0.63379000  0.00819000  0.80456000  1
  H  H97  1  0.73605000  0.06185000  0.92678000  1
  H  H98  1  0.80714000  0.07066000  0.85801000  1
  H  H99  1  0.85776000  0.07159000  0.80166000  1
  H  H100  1  0.92685000  0.04275000  0.73343000  1
  H  H101  1  0.79998000  0.97772000  0.64388000  1
  H  H102  1  0.13379000  0.49181000  0.19544000  1
  H  H103  1  0.23605000  0.43815000  0.07322000  1
  H  H104  1  0.30714000  0.42934000  0.14199000  1
  H  H105  1  0.35776000  0.42841000  0.19834000  1
  H  H106  1  0.42685000  0.45725000  0.26657000  1
  H  H107  1  0.29998000  0.52228000  0.35612000  1
  H  H108  1  0.36621000  0.50819000  0.69544000  1
  H  H109  1  0.26395000  0.56185000  0.57322000  1
  H  H110  1  0.19286000  0.57066000  0.64199000  1
  H  H111  1  0.14224000  0.57159000  0.69834000  1
  H  H112  1  0.07315000  0.54275000  0.76657000  1
  H  H113  1  0.20002000  0.47772000  0.85612000  1
  H  H114  1  0.86621000  0.99181000  0.30456000  1
  H  H115  1  0.76395000  0.93815000  0.42678000  1
  H  H116  1  0.69286000  0.92934000  0.35801000  1
  H  H117  1  0.64224000  0.92841000  0.30166000  1
  H  H118  1  0.57315000  0.95725000  0.23343000  1
  H  H119  1  0.70002000  0.02228000  0.14388000  1
  H  H120  1  0.19544000  0.36621000  0.99181000  1
  H  H121  1  0.07322000  0.26395000  0.93815000  1
  H  H122  1  0.14199000  0.19286000  0.92934000  1
  H  H123  1  0.19834000  0.14224000  0.92841000  1
  H  H124  1  0.26657000  0.07315000  0.95725000  1
  H  H125  1  0.35612000  0.20002000  0.02228000  1
  H  H126  1  0.30456000  0.63379000  0.49181000  1
  H  H127  1  0.42678000  0.73605000  0.43815000  1
  H  H128  1  0.35801000  0.80714000  0.42934000  1
  H  H129  1  0.30166000  0.85776000  0.42841000  1
  H  H130  1  0.23343000  0.92685000  0.45725000  1
  H  H131  1  0.14388000  0.79998000  0.52228000  1
  H  H132  1  0.69544000  0.13379000  0.00819000  1
  H  H133  1  0.57322000  0.23605000  0.06185000  1
  H  H134  1  0.64199000  0.30714000  0.07066000  1
  H  H135  1  0.69834000  0.35776000  0.07159000  1
  H  H136  1  0.76657000  0.42685000  0.04275000  1
  H  H137  1  0.85612000  0.29998000  0.97772000  1
  H  H138  1  0.80456000  0.86621000  0.50819000  1
  H  H139  1  0.92678000  0.76395000  0.56185000  1
  H  H140  1  0.85801000  0.69286000  0.57066000  1
  H  H141  1  0.80166000  0.64224000  0.57159000  1
  H  H142  1  0.73343000  0.57315000  0.54275000  1
  H  H143  1  0.64388000  0.70002000  0.47772000  1
  H  H144  1  0.99181000  0.19544000  0.36621000  1
  H  H145  1  0.93815000  0.07322000  0.26395000  1
  H  H146  1  0.92934000  0.14199000  0.19286000  1
  H  H147  1  0.92841000  0.19834000  0.14224000  1
  H  H148  1  0.95725000  0.26657000  0.07315000  1
  H  H149  1  0.02228000  0.35612000  0.20002000  1
  H  H150  1  0.50819000  0.80456000  0.86621000  1
  H  H151  1  0.56185000  0.92678000  0.76395000  1
  H  H152  1  0.57066000  0.85801000  0.69286000  1
  H  H153  1  0.57159000  0.80166000  0.64224000  1
  H  H154  1  0.54275000  0.73343000  0.57315000  1
  H  H155  1  0.47772000  0.64388000  0.70002000  1
  H  H156  1  0.49181000  0.30456000  0.63379000  1
  H  H157  1  0.43815000  0.42678000  0.73605000  1
  H  H158  1  0.42934000  0.35801000  0.80714000  1
  H  H159  1  0.42841000  0.30166000  0.85776000  1
  H  H160  1  0.45725000  0.23343000  0.92685000  1
  H  H161  1  0.52228000  0.14388000  0.79998000  1
  H  H162  1  0.00819000  0.69544000  0.13379000  1
  H  H163  1  0.06185000  0.57322000  0.23605000  1
  H  H164  1  0.07066000  0.64199000  0.30714000  1
  H  H165  1  0.07159000  0.69834000  0.35776000  1
  H  H166  1  0.04275000  0.76657000  0.42685000  1
  H  H167  1  0.97772000  0.85612000  0.29998000  1
  H  H168  1  0.36621000  0.99181000  0.19544000  1
  H  H169  1  0.26395000  0.93815000  0.07322000  1
  H  H170  1  0.19286000  0.92934000  0.14199000  1
  H  H171  1  0.14224000  0.92841000  0.19834000  1
  H  H172  1  0.07315000  0.95725000  0.26657000  1
  H  H173  1  0.20002000  0.02228000  0.35612000  1
  H  H174  1  0.86621000  0.50819000  0.80456000  1
  H  H175  1  0.76395000  0.56185000  0.92678000  1
  H  H176  1  0.69286000  0.57066000  0.85801000  1
  H  H177  1  0.64224000  0.57159000  0.80166000  1
  H  H178  1  0.57315000  0.54275000  0.73343000  1
  H  H179  1  0.70002000  0.47772000  0.64388000  1
  H  H180  1  0.63379000  0.49181000  0.30456000  1
  H  H181  1  0.73605000  0.43815000  0.42678000  1
  H  H182  1  0.80714000  0.42934000  0.35801000  1
  H  H183  1  0.85776000  0.42841000  0.30166000  1
  H  H184  1  0.92685000  0.45725000  0.23343000  1
  H  H185  1  0.79998000  0.52228000  0.14388000  1
  H  H186  1  0.13379000  0.00819000  0.69544000  1
  H  H187  1  0.23605000  0.06185000  0.57322000  1
  H  H188  1  0.30714000  0.07066000  0.64199000  1
  H  H189  1  0.35776000  0.07159000  0.69834000  1
  H  H190  1  0.42685000  0.04275000  0.76657000  1
  H  H191  1  0.29998000  0.97772000  0.85612000  1
  C  C192  1  0.80080000  0.75900000  0.03460000  1
  C  C193  1  0.86920000  0.68030000  0.03900000  1
  C  C194  1  0.76060000  0.79840000  0.02930000  1
  C  C195  1  0.68280000  0.86620000  0.01370000  1
  C  C196  1  0.90380000  0.63510000  0.03540000  1
  C  C197  1  0.63792000  0.90122000  0.00550000  1
  C  C198  1  0.81860000  0.67360000  0.01910000  1
  C  C199  1  0.88490000  0.72860000  0.05230000  1
  C  C200  1  0.84840000  0.76810000  0.05380000  1
  C  C201  1  0.76670000  0.84760000  0.04760000  1
  C  C202  1  0.72820000  0.88420000  0.03540000  1
  C  C203  1  0.67970000  0.81450000  0.99790000  1
  C  C204  1  0.69920000  0.24100000  0.53460000  1
  C  C205  1  0.63080000  0.31970000  0.53900000  1
  C  C206  1  0.73940000  0.20160000  0.52930000  1
  C  C207  1  0.81720000  0.13380000  0.51370000  1
  C  C208  1  0.59620000  0.36490000  0.53540000  1
  C  C209  1  0.86208000  0.09878000  0.50550000  1
  C  C210  1  0.68140000  0.32640000  0.51910000  1
  C  C211  1  0.61510000  0.27140000  0.55230000  1
  C  C212  1  0.65160000  0.23190000  0.55380000  1
  C  C213  1  0.73330000  0.15240000  0.54760000  1
  C  C214  1  0.77180000  0.11580000  0.53540000  1
  C  C215  1  0.82030000  0.18550000  0.49790000  1
  C  C216  1  0.30080000  0.74100000  0.96540000  1
  C  C217  1  0.36920000  0.81970000  0.96100000  1
  C  C218  1  0.26060000  0.70160000  0.97070000  1
  C  C219  1  0.18280000  0.63380000  0.98630000  1
  C  C220  1  0.40380000  0.86490000  0.96460000  1
  C  C221  1  0.13792000  0.59878000  0.99450000  1
  C  C222  1  0.31860000  0.82640000  0.98090000  1
  C  C223  1  0.38490000  0.77140000  0.94770000  1
  C  C224  1  0.34840000  0.73190000  0.94620000  1
  C  C225  1  0.26670000  0.65240000  0.95240000  1
  C  C226  1  0.22820000  0.61580000  0.96460000  1
  C  C227  1  0.17970000  0.68550000  0.00210000  1
  C  C228  1  0.19920000  0.25900000  0.46540000  1
  C  C229  1  0.13080000  0.18030000  0.46100000  1
  C  C230  1  0.23940000  0.29840000  0.47070000  1
  C  C231  1  0.31720000  0.36620000  0.48630000  1
  C  C232  1  0.09620000  0.13510000  0.46460000  1
  C  C233  1  0.36208000  0.40122000  0.49450000  1
  C  C234  1  0.18140000  0.17360000  0.48090000  1
  C  C235  1  0.11510000  0.22860000  0.44770000  1
  C  C236  1  0.15160000  0.26810000  0.44620000  1
  C  C237  1  0.23330000  0.34760000  0.45240000  1
  C  C238  1  0.27180000  0.38420000  0.46460000  1
  C  C239  1  0.32030000  0.31450000  0.50210000  1
  C  C240  1  0.03460000  0.80080000  0.75900000  1
  C  C241  1  0.03900000  0.86920000  0.68030000  1
  C  C242  1  0.02930000  0.76060000  0.79840000  1
  C  C243  1  0.01370000  0.68280000  0.86620000  1
  C  C244  1  0.03540000  0.90380000  0.63510000  1
  C  C245  1  0.00550000  0.63792000  0.90122000  1
  C  C246  1  0.01910000  0.81860000  0.67360000  1
  C  C247  1  0.05230000  0.88490000  0.72860000  1
  C  C248  1  0.05380000  0.84840000  0.76810000  1
  C  C249  1  0.04760000  0.76670000  0.84760000  1
  C  C250  1  0.03540000  0.72820000  0.88420000  1
  C  C251  1  0.99790000  0.67970000  0.81450000  1
  C  C252  1  0.46540000  0.19920000  0.25900000  1
  C  C253  1  0.46100000  0.13080000  0.18030000  1
  C  C254  1  0.47070000  0.23940000  0.29840000  1
  C  C255  1  0.48630000  0.31720000  0.36620000  1
  C  C256  1  0.46460000  0.09620000  0.13510000  1
  C  C257  1  0.49450000  0.36208000  0.40122000  1
  C  C258  1  0.48090000  0.18140000  0.17360000  1
  C  C259  1  0.44770000  0.11510000  0.22860000  1
  C  C260  1  0.44620000  0.15160000  0.26810000  1
  C  C261  1  0.45240000  0.23330000  0.34760000  1
  C  C262  1  0.46460000  0.27180000  0.38420000  1
  C  C263  1  0.50210000  0.32030000  0.31450000  1
  C  C264  1  0.53460000  0.69920000  0.24100000  1
  C  C265  1  0.53900000  0.63080000  0.31970000  1
  C  C266  1  0.52930000  0.73940000  0.20160000  1
  C  C267  1  0.51370000  0.81720000  0.13380000  1
  C  C268  1  0.53540000  0.59620000  0.36490000  1
  C  C269  1  0.50550000  0.86208000  0.09878000  1
  C  C270  1  0.51910000  0.68140000  0.32640000  1
  C  C271  1  0.55230000  0.61510000  0.27140000  1
  C  C272  1  0.55380000  0.65160000  0.23190000  1
  C  C273  1  0.54760000  0.73330000  0.15240000  1
  C  C274  1  0.53540000  0.77180000  0.11580000  1
  C  C275  1  0.49790000  0.82030000  0.18550000  1
  C  C276  1  0.96540000  0.30080000  0.74100000  1
  C  C277  1  0.96100000  0.36920000  0.81970000  1
  C  C278  1  0.97070000  0.26060000  0.70160000  1
  C  C279  1  0.98630000  0.18280000  0.63380000  1
  C  C280  1  0.96460000  0.40380000  0.86490000  1
  C  C281  1  0.99450000  0.13792000  0.59878000  1
  C  C282  1  0.98090000  0.31860000  0.82640000  1
  C  C283  1  0.94770000  0.38490000  0.77140000  1
  C  C284  1  0.94620000  0.34840000  0.73190000  1
  C  C285  1  0.95240000  0.26670000  0.65240000  1
  C  C286  1  0.96460000  0.22820000  0.61580000  1
  C  C287  1  0.00210000  0.17970000  0.68550000  1
  C  C288  1  0.75900000  0.03460000  0.80080000  1
  C  C289  1  0.68030000  0.03900000  0.86920000  1
  C  C290  1  0.79840000  0.02930000  0.76060000  1
  C  C291  1  0.86620000  0.01370000  0.68280000  1
  C  C292  1  0.63510000  0.03540000  0.90380000  1
  C  C293  1  0.90122000  0.00550000  0.63792000  1
  C  C294  1  0.67360000  0.01910000  0.81860000  1
  C  C295  1  0.72860000  0.05230000  0.88490000  1
  C  C296  1  0.76810000  0.05380000  0.84840000  1
  C  C297  1  0.84760000  0.04760000  0.76670000  1
  C  C298  1  0.88420000  0.03540000  0.72820000  1
  C  C299  1  0.81450000  0.99790000  0.67970000  1
  C  C300  1  0.25900000  0.46540000  0.19920000  1
  C  C301  1  0.18030000  0.46100000  0.13080000  1
  C  C302  1  0.29840000  0.47070000  0.23940000  1
  C  C303  1  0.36620000  0.48630000  0.31720000  1
  C  C304  1  0.13510000  0.46460000  0.09620000  1
  C  C305  1  0.40122000  0.49450000  0.36208000  1
  C  C306  1  0.17360000  0.48090000  0.18140000  1
  C  C307  1  0.22860000  0.44770000  0.11510000  1
  C  C308  1  0.26810000  0.44620000  0.15160000  1
  C  C309  1  0.34760000  0.45240000  0.23330000  1
  C  C310  1  0.38420000  0.46460000  0.27180000  1
  C  C311  1  0.31450000  0.50210000  0.32030000  1
  C  C312  1  0.24100000  0.53460000  0.69920000  1
  C  C313  1  0.31970000  0.53900000  0.63080000  1
  C  C314  1  0.20160000  0.52930000  0.73940000  1
  C  C315  1  0.13380000  0.51370000  0.81720000  1
  C  C316  1  0.36490000  0.53540000  0.59620000  1
  C  C317  1  0.09878000  0.50550000  0.86208000  1
  C  C318  1  0.32640000  0.51910000  0.68140000  1
  C  C319  1  0.27140000  0.55230000  0.61510000  1
  C  C320  1  0.23190000  0.55380000  0.65160000  1
  C  C321  1  0.15240000  0.54760000  0.73330000  1
  C  C322  1  0.11580000  0.53540000  0.77180000  1
  C  C323  1  0.18550000  0.49790000  0.82030000  1
  C  C324  1  0.74100000  0.96540000  0.30080000  1
  C  C325  1  0.81970000  0.96100000  0.36920000  1
  C  C326  1  0.70160000  0.97070000  0.26060000  1
  C  C327  1  0.63380000  0.98630000  0.18280000  1
  C  C328  1  0.86490000  0.96460000  0.40380000  1
  C  C329  1  0.59878000  0.99450000  0.13792000  1
  C  C330  1  0.82640000  0.98090000  0.31860000  1
  C  C331  1  0.77140000  0.94770000  0.38490000  1
  C  C332  1  0.73190000  0.94620000  0.34840000  1
  C  C333  1  0.65240000  0.95240000  0.26670000  1
  C  C334  1  0.61580000  0.96460000  0.22820000  1
  C  C335  1  0.68550000  0.00210000  0.17970000  1
  C  C336  1  0.19920000  0.24100000  0.96540000  1
  C  C337  1  0.13080000  0.31970000  0.96100000  1
  C  C338  1  0.23940000  0.20160000  0.97070000  1
  C  C339  1  0.31720000  0.13380000  0.98630000  1
  C  C340  1  0.09620000  0.36490000  0.96460000  1
  C  C341  1  0.36208000  0.09878000  0.99450000  1
  C  C342  1  0.18140000  0.32640000  0.98090000  1
  C  C343  1  0.11510000  0.27140000  0.94770000  1
  C  C344  1  0.15160000  0.23190000  0.94620000  1
  C  C345  1  0.23330000  0.15240000  0.95240000  1
  C  C346  1  0.27180000  0.11580000  0.96460000  1
  C  C347  1  0.32030000  0.18550000  0.00210000  1
  C  C348  1  0.30080000  0.75900000  0.46540000  1
  C  C349  1  0.36920000  0.68030000  0.46100000  1
  C  C350  1  0.26060000  0.79840000  0.47070000  1
  C  C351  1  0.18280000  0.86620000  0.48630000  1
  C  C352  1  0.40380000  0.63510000  0.46460000  1
  C  C353  1  0.13792000  0.90122000  0.49450000  1
  C  C354  1  0.31860000  0.67360000  0.48090000  1
  C  C355  1  0.38490000  0.72860000  0.44770000  1
  C  C356  1  0.34840000  0.76810000  0.44620000  1
  C  C357  1  0.26670000  0.84760000  0.45240000  1
  C  C358  1  0.22820000  0.88420000  0.46460000  1
  C  C359  1  0.17970000  0.81450000  0.50210000  1
  C  C360  1  0.69920000  0.25900000  0.03460000  1
  C  C361  1  0.63080000  0.18030000  0.03900000  1
  C  C362  1  0.73940000  0.29840000  0.02930000  1
  C  C363  1  0.81720000  0.36620000  0.01370000  1
  C  C364  1  0.59620000  0.13510000  0.03540000  1
  C  C365  1  0.86208000  0.40122000  0.00550000  1
  C  C366  1  0.68140000  0.17360000  0.01910000  1
  C  C367  1  0.61510000  0.22860000  0.05230000  1
  C  C368  1  0.65160000  0.26810000  0.05380000  1
  C  C369  1  0.73330000  0.34760000  0.04760000  1
  C  C370  1  0.77180000  0.38420000  0.03540000  1
  C  C371  1  0.82030000  0.31450000  0.99790000  1
  C  C372  1  0.80080000  0.74100000  0.53460000  1
  C  C373  1  0.86920000  0.81970000  0.53900000  1
  C  C374  1  0.76060000  0.70160000  0.52930000  1
  C  C375  1  0.68280000  0.63380000  0.51370000  1
  C  C376  1  0.90380000  0.86490000  0.53540000  1
  C  C377  1  0.63792000  0.59878000  0.50550000  1
  C  C378  1  0.81860000  0.82640000  0.51910000  1
  C  C379  1  0.88490000  0.77140000  0.55230000  1
  C  C380  1  0.84840000  0.73190000  0.55380000  1
  C  C381  1  0.76670000  0.65240000  0.54760000  1
  C  C382  1  0.72820000  0.61580000  0.53540000  1
  C  C383  1  0.67970000  0.68550000  0.49790000  1
  C  C384  1  0.96540000  0.19920000  0.24100000  1
  C  C385  1  0.96100000  0.13080000  0.31970000  1
  C  C386  1  0.97070000  0.23940000  0.20160000  1
  C  C387  1  0.98630000  0.31720000  0.13380000  1
  C  C388  1  0.96460000  0.09620000  0.36490000  1
  C  C389  1  0.99450000  0.36208000  0.09878000  1
  C  C390  1  0.98090000  0.18140000  0.32640000  1
  C  C391  1  0.94770000  0.11510000  0.27140000  1
  C  C392  1  0.94620000  0.15160000  0.23190000  1
  C  C393  1  0.95240000  0.23330000  0.15240000  1
  C  C394  1  0.96460000  0.27180000  0.11580000  1
  C  C395  1  0.00210000  0.32030000  0.18550000  1
  C  C396  1  0.53460000  0.80080000  0.74100000  1
  C  C397  1  0.53900000  0.86920000  0.81970000  1
  C  C398  1  0.52930000  0.76060000  0.70160000  1
  C  C399  1  0.51370000  0.68280000  0.63380000  1
  C  C400  1  0.53540000  0.90380000  0.86490000  1
  C  C401  1  0.50550000  0.63792000  0.59878000  1
  C  C402  1  0.51910000  0.81860000  0.82640000  1
  C  C403  1  0.55230000  0.88490000  0.77140000  1
  C  C404  1  0.55380000  0.84840000  0.73190000  1
  C  C405  1  0.54760000  0.76670000  0.65240000  1
  C  C406  1  0.53540000  0.72820000  0.61580000  1
  C  C407  1  0.49790000  0.67970000  0.68550000  1
  C  C408  1  0.46540000  0.30080000  0.75900000  1
  C  C409  1  0.46100000  0.36920000  0.68030000  1
  C  C410  1  0.47070000  0.26060000  0.79840000  1
  C  C411  1  0.48630000  0.18280000  0.86620000  1
  C  C412  1  0.46460000  0.40380000  0.63510000  1
  C  C413  1  0.49450000  0.13792000  0.90122000  1
  C  C414  1  0.48090000  0.31860000  0.67360000  1
  C  C415  1  0.44770000  0.38490000  0.72860000  1
  C  C416  1  0.44620000  0.34840000  0.76810000  1
  C  C417  1  0.45240000  0.26670000  0.84760000  1
  C  C418  1  0.46460000  0.22820000  0.88420000  1
  C  C419  1  0.50210000  0.17970000  0.81450000  1
  C  C420  1  0.03460000  0.69920000  0.25900000  1
  C  C421  1  0.03900000  0.63080000  0.18030000  1
  C  C422  1  0.02930000  0.73940000  0.29840000  1
  C  C423  1  0.01370000  0.81720000  0.36620000  1
  C  C424  1  0.03540000  0.59620000  0.13510000  1
  C  C425  1  0.00550000  0.86208000  0.40122000  1
  C  C426  1  0.01910000  0.68140000  0.17360000  1
  C  C427  1  0.05230000  0.61510000  0.22860000  1
  C  C428  1  0.05380000  0.65160000  0.26810000  1
  C  C429  1  0.04760000  0.73330000  0.34760000  1
  C  C430  1  0.03540000  0.77180000  0.38420000  1
  C  C431  1  0.99790000  0.82030000  0.31450000  1
  C  C432  1  0.24100000  0.96540000  0.19920000  1
  C  C433  1  0.31970000  0.96100000  0.13080000  1
  C  C434  1  0.20160000  0.97070000  0.23940000  1
  C  C435  1  0.13380000  0.98630000  0.31720000  1
  C  C436  1  0.36490000  0.96460000  0.09620000  1
  C  C437  1  0.09878000  0.99450000  0.36208000  1
  C  C438  1  0.32640000  0.98090000  0.18140000  1
  C  C439  1  0.27140000  0.94770000  0.11510000  1
  C  C440  1  0.23190000  0.94620000  0.15160000  1
  C  C441  1  0.15240000  0.95240000  0.23330000  1
  C  C442  1  0.11580000  0.96460000  0.27180000  1
  C  C443  1  0.18550000  0.00210000  0.32030000  1
  C  C444  1  0.74100000  0.53460000  0.80080000  1
  C  C445  1  0.81970000  0.53900000  0.86920000  1
  C  C446  1  0.70160000  0.52930000  0.76060000  1
  C  C447  1  0.63380000  0.51370000  0.68280000  1
  C  C448  1  0.86490000  0.53540000  0.90380000  1
  C  C449  1  0.59878000  0.50550000  0.63792000  1
  C  C450  1  0.82640000  0.51910000  0.81860000  1
  C  C451  1  0.77140000  0.55230000  0.88490000  1
  C  C452  1  0.73190000  0.55380000  0.84840000  1
  C  C453  1  0.65240000  0.54760000  0.76670000  1
  C  C454  1  0.61580000  0.53540000  0.72820000  1
  C  C455  1  0.68550000  0.49790000  0.67970000  1
  C  C456  1  0.75900000  0.46540000  0.30080000  1
  C  C457  1  0.68030000  0.46100000  0.36920000  1
  C  C458  1  0.79840000  0.47070000  0.26060000  1
  C  C459  1  0.86620000  0.48630000  0.18280000  1
  C  C460  1  0.63510000  0.46460000  0.40380000  1
  C  C461  1  0.90122000  0.49450000  0.13792000  1
  C  C462  1  0.67360000  0.48090000  0.31860000  1
  C  C463  1  0.72860000  0.44770000  0.38490000  1
  C  C464  1  0.76810000  0.44620000  0.34840000  1
  C  C465  1  0.84760000  0.45240000  0.26670000  1
  C  C466  1  0.88420000  0.46460000  0.22820000  1
  C  C467  1  0.81450000  0.50210000  0.17970000  1
  C  C468  1  0.25900000  0.03460000  0.69920000  1
  C  C469  1  0.18030000  0.03900000  0.63080000  1
  C  C470  1  0.29840000  0.02930000  0.73940000  1
  C  C471  1  0.36620000  0.01370000  0.81720000  1
  C  C472  1  0.13510000  0.03540000  0.59620000  1
  C  C473  1  0.40122000  0.00550000  0.86208000  1
  C  C474  1  0.17360000  0.01910000  0.68140000  1
  C  C475  1  0.22860000  0.05230000  0.61510000  1
  C  C476  1  0.26810000  0.05380000  0.65160000  1
  C  C477  1  0.34760000  0.04760000  0.73330000  1
  C  C478  1  0.38420000  0.03540000  0.77180000  1
  C  C479  1  0.31450000  0.99790000  0.82030000  1
  N  N480  1  0.78630000  0.71370000  0.01270000  1
  N  N481  1  0.71690000  0.78020000  0.00510000  1
  N  N482  1  0.71370000  0.28630000  0.51270000  1
  N  N483  1  0.78310000  0.21980000  0.50510000  1
  N  N484  1  0.28630000  0.78630000  0.98730000  1
  N  N485  1  0.21690000  0.71980000  0.99490000  1
  N  N486  1  0.21370000  0.21370000  0.48730000  1
  N  N487  1  0.28310000  0.28020000  0.49490000  1
  N  N488  1  0.01270000  0.78630000  0.71370000  1
  N  N489  1  0.00510000  0.71690000  0.78020000  1
  N  N490  1  0.48730000  0.21370000  0.21370000  1
  N  N491  1  0.49490000  0.28310000  0.28020000  1
  N  N492  1  0.51270000  0.71370000  0.28630000  1
  N  N493  1  0.50510000  0.78310000  0.21980000  1
  N  N494  1  0.98730000  0.28630000  0.78630000  1
  N  N495  1  0.99490000  0.21690000  0.71980000  1
  N  N496  1  0.71370000  0.01270000  0.78630000  1
  N  N497  1  0.78020000  0.00510000  0.71690000  1
  N  N498  1  0.21370000  0.48730000  0.21370000  1
  N  N499  1  0.28020000  0.49490000  0.28310000  1
  N  N500  1  0.28630000  0.51270000  0.71370000  1
  N  N501  1  0.21980000  0.50510000  0.78310000  1
  N  N502  1  0.78630000  0.98730000  0.28630000  1
  N  N503  1  0.71980000  0.99490000  0.21690000  1
  N  N504  1  0.21370000  0.28630000  0.98730000  1
  N  N505  1  0.28310000  0.21980000  0.99490000  1
  N  N506  1  0.28630000  0.71370000  0.48730000  1
  N  N507  1  0.21690000  0.78020000  0.49490000  1
  N  N508  1  0.71370000  0.21370000  0.01270000  1
  N  N509  1  0.78310000  0.28020000  0.00510000  1
  N  N510  1  0.78630000  0.78630000  0.51270000  1
  N  N511  1  0.71690000  0.71980000  0.50510000  1
  N  N512  1  0.98730000  0.21370000  0.28630000  1
  N  N513  1  0.99490000  0.28310000  0.21980000  1
  N  N514  1  0.51270000  0.78630000  0.78630000  1
  N  N515  1  0.50510000  0.71690000  0.71980000  1
  N  N516  1  0.48730000  0.28630000  0.71370000  1
  N  N517  1  0.49490000  0.21690000  0.78020000  1
  N  N518  1  0.01270000  0.71370000  0.21370000  1
  N  N519  1  0.00510000  0.78310000  0.28020000  1
  N  N520  1  0.28630000  0.98730000  0.21370000  1
  N  N521  1  0.21980000  0.99490000  0.28310000  1
  N  N522  1  0.78630000  0.51270000  0.78630000  1
  N  N523  1  0.71980000  0.50510000  0.71690000  1
  N  N524  1  0.71370000  0.48730000  0.28630000  1
  N  N525  1  0.78020000  0.49490000  0.21690000  1
  N  N526  1  0.21370000  0.01270000  0.71370000  1
  N  N527  1  0.28020000  0.00510000  0.78310000  1
  Cl  Cl528  1  0.68610000  0.64410000  0.94720000  1
  Cl  Cl529  1  0.81390000  0.35590000  0.44720000  1
  Cl  Cl530  1  0.18610000  0.85590000  0.05280000  1
  Cl  Cl531  1  0.31390000  0.14410000  0.55280000  1
  Cl  Cl532  1  0.94720000  0.68610000  0.64410000  1
  Cl  Cl533  1  0.55280000  0.31390000  0.14410000  1
  Cl  Cl534  1  0.44720000  0.81390000  0.35590000  1
  Cl  Cl535  1  0.05280000  0.18610000  0.85590000  1
  Cl  Cl536  1  0.64410000  0.94720000  0.68610000  1
  Cl  Cl537  1  0.14410000  0.55280000  0.31390000  1
  Cl  Cl538  1  0.35590000  0.44720000  0.81390000  1
  Cl  Cl539  1  0.85590000  0.05280000  0.18610000  1
  Cl  Cl540  1  0.31390000  0.35590000  0.05280000  1
  Cl  Cl541  1  0.18610000  0.64410000  0.55280000  1
  Cl  Cl542  1  0.81390000  0.14410000  0.94720000  1
  Cl  Cl543  1  0.68610000  0.85590000  0.44720000  1
  Cl  Cl544  1  0.05280000  0.31390000  0.35590000  1
  Cl  Cl545  1  0.44720000  0.68610000  0.85590000  1
  Cl  Cl546  1  0.55280000  0.18610000  0.64410000  1
  Cl  Cl547  1  0.94720000  0.81390000  0.14410000  1
  Cl  Cl548  1  0.35590000  0.05280000  0.31390000  1
  Cl  Cl549  1  0.85590000  0.44720000  0.68610000  1
  Cl  Cl550  1  0.64410000  0.55280000  0.18610000  1
  Cl  Cl551  1  0.14410000  0.94720000  0.81390000  1
  O  O552  1  0.06990000  0.53500000  0.05090000  1
  O  O553  1  0.95103000  0.64397000  0.03284000  1
  O  O554  1  0.88186000  0.59200000  0.03421000  1
  O  O555  1  0.64562000  0.94834000  0.01329000  1
  O  O556  1  0.59637000  0.87961000  0.99402000  1
  O  O557  1  0.05220000  0.55220000  0.94780000  1
  O  O558  1  0.43010000  0.46500000  0.55090000  1
  O  O559  1  0.54897000  0.35603000  0.53284000  1
  O  O560  1  0.61814000  0.40800000  0.53421000  1
  O  O561  1  0.85438000  0.05166000  0.51329000  1
  O  O562  1  0.90363000  0.12039000  0.49402000  1
  O  O563  1  0.44780000  0.44780000  0.44780000  1
  O  O564  1  0.56990000  0.96500000  0.94910000  1
  O  O565  1  0.45103000  0.85603000  0.96716000  1
  O  O566  1  0.38186000  0.90800000  0.96579000  1
  O  O567  1  0.14562000  0.55166000  0.98671000  1
  O  O568  1  0.09637000  0.62039000  0.00598000  1
  O  O569  1  0.55220000  0.94780000  0.05220000  1
  O  O570  1  0.93010000  0.03500000  0.44910000  1
  O  O571  1  0.04897000  0.14397000  0.46716000  1
  O  O572  1  0.11814000  0.09200000  0.46579000  1
  O  O573  1  0.35438000  0.44834000  0.48671000  1
  O  O574  1  0.40363000  0.37961000  0.50598000  1
  O  O575  1  0.94780000  0.05220000  0.55220000  1
  O  O576  1  0.05090000  0.06990000  0.53500000  1
  O  O577  1  0.03284000  0.95103000  0.64397000  1
  O  O578  1  0.03421000  0.88186000  0.59200000  1
  O  O579  1  0.01329000  0.64562000  0.94834000  1
  O  O580  1  0.99402000  0.59637000  0.87961000  1
  O  O581  1  0.44910000  0.93010000  0.03500000  1
  O  O582  1  0.46716000  0.04897000  0.14397000  1
  O  O583  1  0.46579000  0.11814000  0.09200000  1
  O  O584  1  0.48671000  0.35438000  0.44834000  1
  O  O585  1  0.50598000  0.40363000  0.37961000  1
  O  O586  1  0.55090000  0.43010000  0.46500000  1
  O  O587  1  0.53284000  0.54897000  0.35603000  1
  O  O588  1  0.53421000  0.61814000  0.40800000  1
  O  O589  1  0.51329000  0.85438000  0.05166000  1
  O  O590  1  0.49402000  0.90363000  0.12039000  1
  O  O591  1  0.94910000  0.56990000  0.96500000  1
  O  O592  1  0.96716000  0.45103000  0.85603000  1
  O  O593  1  0.96579000  0.38186000  0.90800000  1
  O  O594  1  0.98671000  0.14562000  0.55166000  1
  O  O595  1  0.00598000  0.09637000  0.62039000  1
  O  O596  1  0.53500000  0.05090000  0.06990000  1
  O  O597  1  0.64397000  0.03284000  0.95103000  1
  O  O598  1  0.59200000  0.03421000  0.88186000  1
  O  O599  1  0.94834000  0.01329000  0.64562000  1
  O  O600  1  0.87961000  0.99402000  0.59637000  1
  O  O601  1  0.03500000  0.44910000  0.93010000  1
  O  O602  1  0.14397000  0.46716000  0.04897000  1
  O  O603  1  0.09200000  0.46579000  0.11814000  1
  O  O604  1  0.44834000  0.48671000  0.35438000  1
  O  O605  1  0.37961000  0.50598000  0.40363000  1
  O  O606  1  0.46500000  0.55090000  0.43010000  1
  O  O607  1  0.35603000  0.53284000  0.54897000  1
  O  O608  1  0.40800000  0.53421000  0.61814000  1
  O  O609  1  0.05166000  0.51329000  0.85438000  1
  O  O610  1  0.12039000  0.49402000  0.90363000  1
  O  O611  1  0.96500000  0.94910000  0.56990000  1
  O  O612  1  0.85603000  0.96716000  0.45103000  1
  O  O613  1  0.90800000  0.96579000  0.38186000  1
  O  O614  1  0.55166000  0.98671000  0.14562000  1
  O  O615  1  0.62039000  0.00598000  0.09637000  1
  O  O616  1  0.93010000  0.46500000  0.94910000  1
  O  O617  1  0.04897000  0.35603000  0.96716000  1
  O  O618  1  0.11814000  0.40800000  0.96579000  1
  O  O619  1  0.35438000  0.05166000  0.98671000  1
  O  O620  1  0.40363000  0.12039000  0.00598000  1
  O  O621  1  0.94780000  0.44780000  0.05220000  1
  O  O622  1  0.56990000  0.53500000  0.44910000  1
  O  O623  1  0.45103000  0.64397000  0.46716000  1
  O  O624  1  0.38186000  0.59200000  0.46579000  1
  O  O625  1  0.14562000  0.94834000  0.48671000  1
  O  O626  1  0.09637000  0.87961000  0.50598000  1
  O  O627  1  0.55220000  0.55220000  0.55220000  1
  O  O628  1  0.43010000  0.03500000  0.05090000  1
  O  O629  1  0.54897000  0.14397000  0.03284000  1
  O  O630  1  0.61814000  0.09200000  0.03421000  1
  O  O631  1  0.85438000  0.44834000  0.01329000  1
  O  O632  1  0.90363000  0.37961000  0.99402000  1
  O  O633  1  0.44780000  0.05220000  0.94780000  1
  O  O634  1  0.06990000  0.96500000  0.55090000  1
  O  O635  1  0.95103000  0.85603000  0.53284000  1
  O  O636  1  0.88186000  0.90800000  0.53421000  1
  O  O637  1  0.64562000  0.55166000  0.51329000  1
  O  O638  1  0.59637000  0.62039000  0.49402000  1
  O  O639  1  0.05220000  0.94780000  0.44780000  1
  O  O640  1  0.94910000  0.93010000  0.46500000  1
  O  O641  1  0.96716000  0.04897000  0.35603000  1
  O  O642  1  0.96579000  0.11814000  0.40800000  1
  O  O643  1  0.98671000  0.35438000  0.05166000  1
  O  O644  1  0.00598000  0.40363000  0.12039000  1
  O  O645  1  0.55090000  0.06990000  0.96500000  1
  O  O646  1  0.53284000  0.95103000  0.85603000  1
  O  O647  1  0.53421000  0.88186000  0.90800000  1
  O  O648  1  0.51329000  0.64562000  0.55166000  1
  O  O649  1  0.49402000  0.59637000  0.62039000  1
  O  O650  1  0.44910000  0.56990000  0.53500000  1
  O  O651  1  0.46716000  0.45103000  0.64397000  1
  O  O652  1  0.46579000  0.38186000  0.59200000  1
  O  O653  1  0.48671000  0.14562000  0.94834000  1
  O  O654  1  0.50598000  0.09637000  0.87961000  1
  O  O655  1  0.05090000  0.43010000  0.03500000  1
  O  O656  1  0.03284000  0.54897000  0.14397000  1
  O  O657  1  0.03421000  0.61814000  0.09200000  1
  O  O658  1  0.01329000  0.85438000  0.44834000  1
  O  O659  1  0.99402000  0.90363000  0.37961000  1
  O  O660  1  0.46500000  0.94910000  0.93010000  1
  O  O661  1  0.35603000  0.96716000  0.04897000  1
  O  O662  1  0.40800000  0.96579000  0.11814000  1
  O  O663  1  0.05166000  0.98671000  0.35438000  1
  O  O664  1  0.12039000  0.00598000  0.40363000  1
  O  O665  1  0.96500000  0.55090000  0.06990000  1
  O  O666  1  0.85603000  0.53284000  0.95103000  1
  O  O667  1  0.90800000  0.53421000  0.88186000  1
  O  O668  1  0.55166000  0.51329000  0.64562000  1
  O  O669  1  0.62039000  0.49402000  0.59637000  1
  O  O670  1  0.53500000  0.44910000  0.56990000  1
  O  O671  1  0.64397000  0.46716000  0.45103000  1
  O  O672  1  0.59200000  0.46579000  0.38186000  1
  O  O673  1  0.94834000  0.48671000  0.14562000  1
  O  O674  1  0.87961000  0.50598000  0.09637000  1
  O  O675  1  0.03500000  0.05090000  0.43010000  1
  O  O676  1  0.14397000  0.03284000  0.54897000  1
  O  O677  1  0.09200000  0.03421000  0.61814000  1
  O  O678  1  0.44834000  0.01329000  0.85438000  1
  O  O679  1  0.37961000  0.99402000  0.90363000  1
