# generated using pymatgen
data_ZrH6(C7O2)2
_symmetry_space_group_name_H-M   'P 1'
_cell_length_a   13.80780000
_cell_length_b   24.74306728
_cell_length_c   24.74306728
_cell_angle_alpha   119.12925740
_cell_angle_beta   90.00000000
_cell_angle_gamma   90.00000000
_symmetry_Int_Tables_number   1
_chemical_formula_structural   ZrH6(C7O2)2
_chemical_formula_sum   'Zr12 H72 C168 O48'
_cell_volume   7384.24820419
_cell_formula_units_Z   12
loop_
 _symmetry_equiv_pos_site_id
 _symmetry_equiv_pos_as_xyz
  1  'x, y, z'
loop_
 _atom_site_type_symbol
 _atom_site_label
 _atom_site_symmetry_multiplicity
 _atom_site_fract_x
 _atom_site_fract_y
 _atom_site_fract_z
 _atom_site_occupancy
  C  C0  1  0.30260000  0.22373000  0.24667000  1
  C  C1  1  0.35540000  0.22739000  0.19861000  1
  C  C2  1  0.34990000  0.21938000  0.29302000  1
  C  C3  1  0.59750000  0.22490000  0.95470000  1
  C  C4  1  0.44840000  0.23092000  0.10828000  1
  C  C5  1  0.30040000  0.21405000  0.33995000  1
  C  C6  1  0.43920000  0.20460000  0.47940000  1
  C  C7  1  0.39630000  0.22876000  0.15744000  1
  C  C8  1  0.54760000  0.22980000  0.01060000  1
  C  C9  1  0.56850000  0.18780000  0.02920000  1
  C  C10  1  0.35220000  0.20867000  0.38773000  1
  C  C11  1  0.51200000  0.18670000  0.07630000  1
  C  C12  1  0.39260000  0.20470000  0.42730000  1
  C  C13  1  0.48920000  0.27580000  0.04600000  1
  C  C14  1  0.58740000  0.20305000  0.63075000  1
  C  C15  1  0.53310000  0.20491000  0.58009000  1
  C  C16  1  0.55640000  0.24820000  0.56260000  1
  C  C17  1  0.41230000  0.16610000  0.50110000  1
  C  C18  1  0.43710000  0.27580000  0.09260000  1
  C  C19  1  0.45870000  0.16330000  0.54750000  1
  C  C20  1  0.51190000  0.24680000  0.51020000  1
  C  C21  1  0.80260000  0.77627000  0.75333000  1
  C  C22  1  0.85540000  0.77261000  0.80139000  1
  C  C23  1  0.84990000  0.78062000  0.70698000  1
  C  C24  1  0.09750000  0.77510000  0.04530000  1
  C  C25  1  0.94840000  0.76908000  0.89172000  1
  C  C26  1  0.80040000  0.78595000  0.66005000  1
  C  C27  1  0.93920000  0.79540000  0.52060000  1
  C  C28  1  0.89630000  0.77124000  0.84256000  1
  C  C29  1  0.04760000  0.77020000  0.98940000  1
  C  C30  1  0.06850000  0.81220000  0.97080000  1
  C  C31  1  0.85220000  0.79133000  0.61227000  1
  C  C32  1  0.01200000  0.81330000  0.92370000  1
  C  C33  1  0.89260000  0.79530000  0.57270000  1
  C  C34  1  0.98920000  0.72420000  0.95400000  1
  C  C35  1  0.08740000  0.79695000  0.36925000  1
  C  C36  1  0.03310000  0.79509000  0.41991000  1
  C  C37  1  0.05640000  0.75180000  0.43740000  1
  C  C38  1  0.91230000  0.83390000  0.49890000  1
  C  C39  1  0.93710000  0.72420000  0.90740000  1
  C  C40  1  0.95870000  0.83670000  0.45250000  1
  C  C41  1  0.01190000  0.75320000  0.48980000  1
  C  C42  1  0.69740000  0.24667000  0.22373000  1
  C  C43  1  0.64460000  0.19861000  0.22739000  1
  C  C44  1  0.65010000  0.29302000  0.21938000  1
  C  C45  1  0.40250000  0.95470000  0.22490000  1
  C  C46  1  0.55160000  0.10828000  0.23092000  1
  C  C47  1  0.69960000  0.33995000  0.21405000  1
  C  C48  1  0.56080000  0.47940000  0.20460000  1
  C  C49  1  0.60370000  0.15744000  0.22876000  1
  C  C50  1  0.45240000  0.01060000  0.22980000  1
  C  C51  1  0.43150000  0.02920000  0.18780000  1
  C  C52  1  0.64780000  0.38773000  0.20867000  1
  C  C53  1  0.48800000  0.07630000  0.18670000  1
  C  C54  1  0.60740000  0.42730000  0.20470000  1
  C  C55  1  0.51080000  0.04600000  0.27580000  1
  C  C56  1  0.41260000  0.63075000  0.20305000  1
  C  C57  1  0.46690000  0.58009000  0.20491000  1
  C  C58  1  0.44360000  0.56260000  0.24820000  1
  C  C59  1  0.58770000  0.50110000  0.16610000  1
  C  C60  1  0.56290000  0.09260000  0.27580000  1
  C  C61  1  0.54130000  0.54750000  0.16330000  1
  C  C62  1  0.48810000  0.51020000  0.24680000  1
  C  C63  1  0.19740000  0.75333000  0.77627000  1
  C  C64  1  0.14460000  0.80139000  0.77261000  1
  C  C65  1  0.15010000  0.70698000  0.78062000  1
  C  C66  1  0.90250000  0.04530000  0.77510000  1
  C  C67  1  0.05160000  0.89172000  0.76908000  1
  C  C68  1  0.19960000  0.66005000  0.78595000  1
  C  C69  1  0.06080000  0.52060000  0.79540000  1
  C  C70  1  0.10370000  0.84256000  0.77124000  1
  C  C71  1  0.95240000  0.98940000  0.77020000  1
  C  C72  1  0.93150000  0.97080000  0.81220000  1
  C  C73  1  0.14780000  0.61227000  0.79133000  1
  C  C74  1  0.98800000  0.92370000  0.81330000  1
  C  C75  1  0.10740000  0.57270000  0.79530000  1
  C  C76  1  0.01080000  0.95400000  0.72420000  1
  C  C77  1  0.91260000  0.36925000  0.79695000  1
  C  C78  1  0.96690000  0.41991000  0.79509000  1
  C  C79  1  0.94360000  0.43740000  0.75180000  1
  C  C80  1  0.08770000  0.49890000  0.83390000  1
  C  C81  1  0.06290000  0.90740000  0.72420000  1
  C  C82  1  0.04130000  0.45250000  0.83670000  1
  C  C83  1  0.98810000  0.48980000  0.75320000  1
  C  C84  1  0.69740000  0.77627000  0.75333000  1
  C  C85  1  0.64460000  0.77261000  0.80139000  1
  C  C86  1  0.65010000  0.78062000  0.70698000  1
  C  C87  1  0.40250000  0.77510000  0.04530000  1
  C  C88  1  0.55160000  0.76908000  0.89172000  1
  C  C89  1  0.69960000  0.78595000  0.66005000  1
  C  C90  1  0.56080000  0.79540000  0.52060000  1
  C  C91  1  0.60370000  0.77124000  0.84256000  1
  C  C92  1  0.45240000  0.77020000  0.98940000  1
  C  C93  1  0.43150000  0.81220000  0.97080000  1
  C  C94  1  0.64780000  0.79133000  0.61227000  1
  C  C95  1  0.48800000  0.81330000  0.92370000  1
  C  C96  1  0.60740000  0.79530000  0.57270000  1
  C  C97  1  0.51080000  0.72420000  0.95400000  1
  C  C98  1  0.41260000  0.79695000  0.36925000  1
  C  C99  1  0.46690000  0.79509000  0.41991000  1
  C  C100  1  0.44360000  0.75180000  0.43740000  1
  C  C101  1  0.58770000  0.83390000  0.49890000  1
  C  C102  1  0.56290000  0.72420000  0.90740000  1
  C  C103  1  0.54130000  0.83670000  0.45250000  1
  C  C104  1  0.48810000  0.75320000  0.48980000  1
  C  C105  1  0.19740000  0.22373000  0.24667000  1
  C  C106  1  0.14460000  0.22739000  0.19861000  1
  C  C107  1  0.15010000  0.21938000  0.29302000  1
  C  C108  1  0.90250000  0.22490000  0.95470000  1
  C  C109  1  0.05160000  0.23092000  0.10828000  1
  C  C110  1  0.19960000  0.21405000  0.33995000  1
  C  C111  1  0.06080000  0.20460000  0.47940000  1
  C  C112  1  0.10370000  0.22876000  0.15744000  1
  C  C113  1  0.95240000  0.22980000  0.01060000  1
  C  C114  1  0.93150000  0.18780000  0.02920000  1
  C  C115  1  0.14780000  0.20867000  0.38773000  1
  C  C116  1  0.98800000  0.18670000  0.07630000  1
  C  C117  1  0.10740000  0.20470000  0.42730000  1
  C  C118  1  0.01080000  0.27580000  0.04600000  1
  C  C119  1  0.91260000  0.20305000  0.63075000  1
  C  C120  1  0.96690000  0.20491000  0.58009000  1
  C  C121  1  0.94360000  0.24820000  0.56260000  1
  C  C122  1  0.08770000  0.16610000  0.50110000  1
  C  C123  1  0.06290000  0.27580000  0.09260000  1
  C  C124  1  0.04130000  0.16330000  0.54750000  1
  C  C125  1  0.98810000  0.24680000  0.51020000  1
  C  C126  1  0.30260000  0.75333000  0.77627000  1
  C  C127  1  0.35540000  0.80139000  0.77261000  1
  C  C128  1  0.34990000  0.70698000  0.78062000  1
  C  C129  1  0.59750000  0.04530000  0.77510000  1
  C  C130  1  0.44840000  0.89172000  0.76908000  1
  C  C131  1  0.30040000  0.66005000  0.78595000  1
  C  C132  1  0.43920000  0.52060000  0.79540000  1
  C  C133  1  0.39630000  0.84256000  0.77124000  1
  C  C134  1  0.54760000  0.98940000  0.77020000  1
  C  C135  1  0.56850000  0.97080000  0.81220000  1
  C  C136  1  0.35220000  0.61227000  0.79133000  1
  C  C137  1  0.51200000  0.92370000  0.81330000  1
  C  C138  1  0.39260000  0.57270000  0.79530000  1
  C  C139  1  0.48920000  0.95400000  0.72420000  1
  C  C140  1  0.58740000  0.36925000  0.79695000  1
  C  C141  1  0.53310000  0.41991000  0.79509000  1
  C  C142  1  0.55640000  0.43740000  0.75180000  1
  C  C143  1  0.41230000  0.49890000  0.83390000  1
  C  C144  1  0.43710000  0.90740000  0.72420000  1
  C  C145  1  0.45870000  0.45250000  0.83670000  1
  C  C146  1  0.51190000  0.48980000  0.75320000  1
  C  C147  1  0.80260000  0.24667000  0.22373000  1
  C  C148  1  0.85540000  0.19861000  0.22739000  1
  C  C149  1  0.84990000  0.29302000  0.21938000  1
  C  C150  1  0.09750000  0.95470000  0.22490000  1
  C  C151  1  0.94840000  0.10828000  0.23092000  1
  C  C152  1  0.80040000  0.33995000  0.21405000  1
  C  C153  1  0.93920000  0.47940000  0.20460000  1
  C  C154  1  0.89630000  0.15744000  0.22876000  1
  C  C155  1  0.04760000  0.01060000  0.22980000  1
  C  C156  1  0.06850000  0.02920000  0.18780000  1
  C  C157  1  0.85220000  0.38773000  0.20867000  1
  C  C158  1  0.01200000  0.07630000  0.18670000  1
  C  C159  1  0.89260000  0.42730000  0.20470000  1
  C  C160  1  0.98920000  0.04600000  0.27580000  1
  C  C161  1  0.08740000  0.63075000  0.20305000  1
  C  C162  1  0.03310000  0.58009000  0.20491000  1
  C  C163  1  0.05640000  0.56260000  0.24820000  1
  C  C164  1  0.91230000  0.50110000  0.16610000  1
  C  C165  1  0.93710000  0.09260000  0.27580000  1
  C  C166  1  0.95870000  0.54750000  0.16330000  1
  C  C167  1  0.01190000  0.51020000  0.24680000  1
  H  H168  1  0.41730000  0.21990000  0.29350000  1
  H  H169  1  0.61940000  0.16020000  0.01120000  1
  H  H170  1  0.51970000  0.15440000  0.08480000  1
  H  H171  1  0.48340000  0.30920000  0.03880000  1
  H  H172  1  0.60180000  0.27860000  0.58520000  1
  H  H173  1  0.35920000  0.14040000  0.48300000  1
  H  H174  1  0.39270000  0.30740000  0.11420000  1
  H  H175  1  0.44110000  0.13320000  0.55800000  1
  H  H176  1  0.53170000  0.27420000  0.49680000  1
  H  H177  1  0.91730000  0.78010000  0.70650000  1
  H  H178  1  0.11940000  0.83980000  0.98880000  1
  H  H179  1  0.01970000  0.84560000  0.91520000  1
  H  H180  1  0.98340000  0.69080000  0.96120000  1
  H  H181  1  0.10180000  0.72140000  0.41480000  1
  H  H182  1  0.85920000  0.85960000  0.51700000  1
  H  H183  1  0.89270000  0.69260000  0.88580000  1
  H  H184  1  0.94110000  0.86680000  0.44200000  1
  H  H185  1  0.03170000  0.72580000  0.50320000  1
  H  H186  1  0.58270000  0.29350000  0.21990000  1
  H  H187  1  0.38060000  0.01120000  0.16020000  1
  H  H188  1  0.48030000  0.08480000  0.15440000  1
  H  H189  1  0.51660000  0.03880000  0.30920000  1
  H  H190  1  0.39820000  0.58520000  0.27860000  1
  H  H191  1  0.64080000  0.48300000  0.14040000  1
  H  H192  1  0.60730000  0.11420000  0.30740000  1
  H  H193  1  0.55890000  0.55800000  0.13320000  1
  H  H194  1  0.46830000  0.49680000  0.27420000  1
  H  H195  1  0.08270000  0.70650000  0.78010000  1
  H  H196  1  0.88060000  0.98880000  0.83980000  1
  H  H197  1  0.98030000  0.91520000  0.84560000  1
  H  H198  1  0.01660000  0.96120000  0.69080000  1
  H  H199  1  0.89820000  0.41480000  0.72140000  1
  H  H200  1  0.14080000  0.51700000  0.85960000  1
  H  H201  1  0.10730000  0.88580000  0.69260000  1
  H  H202  1  0.05890000  0.44200000  0.86680000  1
  H  H203  1  0.96830000  0.50320000  0.72580000  1
  H  H204  1  0.58270000  0.78010000  0.70650000  1
  H  H205  1  0.38060000  0.83980000  0.98880000  1
  H  H206  1  0.48030000  0.84560000  0.91520000  1
  H  H207  1  0.51660000  0.69080000  0.96120000  1
  H  H208  1  0.39820000  0.72140000  0.41480000  1
  H  H209  1  0.64080000  0.85960000  0.51700000  1
  H  H210  1  0.60730000  0.69260000  0.88580000  1
  H  H211  1  0.55890000  0.86680000  0.44200000  1
  H  H212  1  0.46830000  0.72580000  0.50320000  1
  H  H213  1  0.08270000  0.21990000  0.29350000  1
  H  H214  1  0.88060000  0.16020000  0.01120000  1
  H  H215  1  0.98030000  0.15440000  0.08480000  1
  H  H216  1  0.01660000  0.30920000  0.03880000  1
  H  H217  1  0.89820000  0.27860000  0.58520000  1
  H  H218  1  0.14080000  0.14040000  0.48300000  1
  H  H219  1  0.10730000  0.30740000  0.11420000  1
  H  H220  1  0.05890000  0.13320000  0.55800000  1
  H  H221  1  0.96830000  0.27420000  0.49680000  1
  H  H222  1  0.41730000  0.70650000  0.78010000  1
  H  H223  1  0.61940000  0.98880000  0.83980000  1
  H  H224  1  0.51970000  0.91520000  0.84560000  1
  H  H225  1  0.48340000  0.96120000  0.69080000  1
  H  H226  1  0.60180000  0.41480000  0.72140000  1
  H  H227  1  0.35920000  0.51700000  0.85960000  1
  H  H228  1  0.39270000  0.88580000  0.69260000  1
  H  H229  1  0.44110000  0.44200000  0.86680000  1
  H  H230  1  0.53170000  0.50320000  0.72580000  1
  H  H231  1  0.91730000  0.29350000  0.21990000  1
  H  H232  1  0.11940000  0.01120000  0.16020000  1
  H  H233  1  0.01970000  0.08480000  0.15440000  1
  H  H234  1  0.98340000  0.03880000  0.30920000  1
  H  H235  1  0.10180000  0.58520000  0.27860000  1
  H  H236  1  0.85920000  0.48300000  0.14040000  1
  H  H237  1  0.89270000  0.11420000  0.30740000  1
  H  H238  1  0.94110000  0.55800000  0.13320000  1
  H  H239  1  0.03170000  0.49680000  0.27420000  1
  O  O240  1  0.65250000  0.24187000  0.65373000  1
  O  O241  1  0.65470000  0.18071000  0.92669000  1
  O  O242  1  0.57690000  0.26509000  0.93891000  1
  O  O243  1  0.56260000  0.16260000  0.64540000  1
  O  O244  1  0.75000000  0.24758000  0.87522000  1
  O  O245  1  0.75000000  0.32038000  0.83722000  1
  O  O246  1  0.63570000  0.23628000  0.76372000  1
  O  O247  1  0.60430000  0.17992000  0.82008000  1
  O  O248  1  0.15250000  0.75813000  0.34627000  1
  O  O249  1  0.15470000  0.81929000  0.07331000  1
  O  O250  1  0.07690000  0.73491000  0.06109000  1
  O  O251  1  0.06260000  0.83740000  0.35460000  1
  O  O252  1  0.25000000  0.75242000  0.12478000  1
  O  O253  1  0.25000000  0.67962000  0.16278000  1
  O  O254  1  0.13570000  0.76372000  0.23628000  1
  O  O255  1  0.10430000  0.82008000  0.17992000  1
  O  O256  1  0.34750000  0.65373000  0.24187000  1
  O  O257  1  0.34530000  0.92669000  0.18071000  1
  O  O258  1  0.42310000  0.93891000  0.26509000  1
  O  O259  1  0.43740000  0.64540000  0.16260000  1
  O  O260  1  0.25000000  0.87522000  0.24758000  1
  O  O261  1  0.25000000  0.83722000  0.32038000  1
  O  O262  1  0.36430000  0.76372000  0.23628000  1
  O  O263  1  0.39570000  0.82008000  0.17992000  1
  O  O264  1  0.84750000  0.34627000  0.75813000  1
  O  O265  1  0.84530000  0.07331000  0.81929000  1
  O  O266  1  0.92310000  0.06109000  0.73491000  1
  O  O267  1  0.93740000  0.35460000  0.83740000  1
  O  O268  1  0.75000000  0.12478000  0.75242000  1
  O  O269  1  0.75000000  0.16278000  0.67962000  1
  O  O270  1  0.86430000  0.23628000  0.76372000  1
  O  O271  1  0.89570000  0.17992000  0.82008000  1
  O  O272  1  0.34750000  0.75813000  0.34627000  1
  O  O273  1  0.34530000  0.81929000  0.07331000  1
  O  O274  1  0.42310000  0.73491000  0.06109000  1
  O  O275  1  0.43740000  0.83740000  0.35460000  1
  O  O276  1  0.84750000  0.24187000  0.65373000  1
  O  O277  1  0.84530000  0.18071000  0.92669000  1
  O  O278  1  0.92310000  0.26509000  0.93891000  1
  O  O279  1  0.93740000  0.16260000  0.64540000  1
  O  O280  1  0.65250000  0.34627000  0.75813000  1
  O  O281  1  0.65470000  0.07331000  0.81929000  1
  O  O282  1  0.57690000  0.06109000  0.73491000  1
  O  O283  1  0.56260000  0.35460000  0.83740000  1
  O  O284  1  0.15250000  0.65373000  0.24187000  1
  O  O285  1  0.15470000  0.92669000  0.18071000  1
  O  O286  1  0.07690000  0.93891000  0.26509000  1
  O  O287  1  0.06260000  0.64540000  0.16260000  1
  Zr  Zr288  1  0.62144000  0.28107000  0.85991000  1
  Zr  Zr289  1  0.75000000  0.26775000  0.73225000  1
  Zr  Zr290  1  0.75000000  0.15330000  0.84670000  1
  Zr  Zr291  1  0.12144000  0.71893000  0.14009000  1
  Zr  Zr292  1  0.25000000  0.73225000  0.26775000  1
  Zr  Zr293  1  0.25000000  0.84670000  0.15330000  1
  Zr  Zr294  1  0.37856000  0.85991000  0.28107000  1
  Zr  Zr295  1  0.87856000  0.14009000  0.71893000  1
  Zr  Zr296  1  0.37856000  0.71893000  0.14009000  1
  Zr  Zr297  1  0.87856000  0.28107000  0.85991000  1
  Zr  Zr298  1  0.62144000  0.14009000  0.71893000  1
  Zr  Zr299  1  0.12144000  0.85991000  0.28107000  1
