# generated using pymatgen
data_Zr3H24C40(NO6)2
_symmetry_space_group_name_H-M   'P 1'
_cell_length_a   16.66190000
_cell_length_b   18.35774730
_cell_length_c   19.73520449
_cell_angle_alpha   78.95556434
_cell_angle_beta   65.03045316
_cell_angle_gamma   63.01153387
_symmetry_Int_Tables_number   1
_chemical_formula_structural   Zr3H24C40(NO6)2
_chemical_formula_sum   'Zr6 H48 C80 N4 O24'
_cell_volume   4876.34287746
_cell_formula_units_Z   2
loop_
 _symmetry_equiv_pos_site_id
 _symmetry_equiv_pos_as_xyz
  1  'x, y, z'
loop_
 _atom_site_type_symbol
 _atom_site_label
 _atom_site_symmetry_multiplicity
 _atom_site_fract_x
 _atom_site_fract_y
 _atom_site_fract_z
 _atom_site_occupancy
  C  C0  1  0.65233000  0.67320000  0.56474000  1
  C  C1  1  0.62229000  0.71980000  0.63182000  1
  C  C2  1  0.69338000  0.58836000  0.56428000  1
  C  C3  1  0.56604000  0.70166000  0.70306000  1
  C  C4  1  0.53464000  0.86188000  0.81984000  1
  C  C5  1  0.53882000  0.74654000  0.76402000  1
  C  C6  1  0.56311000  0.81014000  0.75584000  1
  C  C7  1  0.64747000  0.78358000  0.62408000  1
  C  C8  1  0.61916000  0.82906000  0.68462000  1
  C  C9  1  0.78293000  0.32680000  0.56474000  1
  C  C10  1  0.74589000  0.28020000  0.63182000  1
  C  C11  1  0.74234000  0.41164000  0.56428000  1
  C  C12  1  0.73090000  0.29834000  0.70306000  1
  C  C13  1  0.64552000  0.13812000  0.81984000  1
  C  C14  1  0.69716000  0.25346000  0.76402000  1
  C  C15  1  0.68105000  0.18986000  0.75584000  1
  C  C16  1  0.72845000  0.21642000  0.62408000  1
  C  C17  1  0.69622000  0.17094000  0.68462000  1
  C  C18  1  0.67447000  0.67320000  0.43526000  1
  C  C19  1  0.65791000  0.71980000  0.36818000  1
  C  C20  1  0.71826000  0.58836000  0.43572000  1
  C  C21  1  0.73230000  0.70166000  0.29694000  1
  C  C22  1  0.60348000  0.86188000  0.18016000  1
  C  C23  1  0.71464000  0.74654000  0.23598000  1
  C  C24  1  0.62675000  0.81014000  0.24416000  1
  C  C25  1  0.56895000  0.78358000  0.37592000  1
  C  C26  1  0.55178000  0.82906000  0.31538000  1
  C  C27  1  0.89027000  0.32680000  0.43526000  1
  C  C28  1  0.97391000  0.28020000  0.36818000  1
  C  C29  1  0.84602000  0.41164000  0.43572000  1
  C  C30  1  0.97076000  0.29834000  0.29694000  1
  C  C31  1  0.21636000  0.13812000  0.18016000  1
  C  C32  1  0.04938000  0.25346000  0.23598000  1
  C  C33  1  0.12909000  0.18986000  0.24416000  1
  C  C34  1  0.05513000  0.21642000  0.37592000  1
  C  C35  1  0.13284000  0.17094000  0.31538000  1
  C  C36  1  0.34767000  0.32680000  0.43526000  1
  C  C37  1  0.37771000  0.28020000  0.36818000  1
  C  C38  1  0.30662000  0.41164000  0.43572000  1
  C  C39  1  0.43396000  0.29834000  0.29694000  1
  C  C40  1  0.46536000  0.13812000  0.18016000  1
  C  C41  1  0.46118000  0.25346000  0.23598000  1
  C  C42  1  0.43689000  0.18986000  0.24416000  1
  C  C43  1  0.35253000  0.21642000  0.37592000  1
  C  C44  1  0.38084000  0.17094000  0.31538000  1
  C  C45  1  0.21707000  0.67320000  0.43526000  1
  C  C46  1  0.25411000  0.71980000  0.36818000  1
  C  C47  1  0.25766000  0.58836000  0.43572000  1
  C  C48  1  0.26910000  0.70166000  0.29694000  1
  C  C49  1  0.35448000  0.86188000  0.18016000  1
  C  C50  1  0.30284000  0.74654000  0.23598000  1
  C  C51  1  0.31895000  0.81014000  0.24416000  1
  C  C52  1  0.27155000  0.78358000  0.37592000  1
  C  C53  1  0.30378000  0.82906000  0.31538000  1
  C  C54  1  0.32553000  0.32680000  0.56474000  1
  C  C55  1  0.34209000  0.28020000  0.63182000  1
  C  C56  1  0.28174000  0.41164000  0.56428000  1
  C  C57  1  0.26770000  0.29834000  0.70306000  1
  C  C58  1  0.39652000  0.13812000  0.81984000  1
  C  C59  1  0.28536000  0.25346000  0.76402000  1
  C  C60  1  0.37325000  0.18986000  0.75584000  1
  C  C61  1  0.43105000  0.21642000  0.62408000  1
  C  C62  1  0.44822000  0.17094000  0.68462000  1
  C  C63  1  0.10973000  0.67320000  0.56474000  1
  C  C64  1  0.02609000  0.71980000  0.63182000  1
  C  C65  1  0.15398000  0.58836000  0.56428000  1
  C  C66  1  0.02924000  0.70166000  0.70306000  1
  C  C67  1  0.78364000  0.86188000  0.81984000  1
  C  C68  1  0.95062000  0.74654000  0.76402000  1
  C  C69  1  0.87091000  0.81014000  0.75584000  1
  C  C70  1  0.94487000  0.78358000  0.62408000  1
  C  C71  1  0.86716000  0.82906000  0.68462000  1
  C  C72  1  0.72735000  0.54530000  0.50000000  1
  C  C73  1  0.64190000  0.71620000  0.50000000  1
  C  C74  1  0.77265000  0.45470000  0.50000000  1
  C  C75  1  0.85810000  0.28380000  0.50000000  1
  C  C76  1  0.27265000  0.45470000  0.50000000  1
  C  C77  1  0.35810000  0.28380000  0.50000000  1
  C  C78  1  0.22735000  0.54530000  0.50000000  1
  C  C79  1  0.14190000  0.71620000  0.50000000  1
  H  H80  1  0.54281000  0.65004000  0.71070000  1
  H  H81  1  0.49525000  0.73054000  0.82244000  1
  H  H82  1  0.69280000  0.79982000  0.56654000  1
  H  H83  1  0.64129000  0.88144000  0.67656000  1
  H  H84  1  0.74649000  0.34996000  0.71070000  1
  H  H85  1  0.68231000  0.26946000  0.82244000  1
  H  H86  1  0.74066000  0.20018000  0.56654000  1
  H  H87  1  0.68215000  0.11856000  0.67656000  1
  H  H88  1  0.80715000  0.65004000  0.28930000  1
  H  H89  1  0.77421000  0.73054000  0.17756000  1
  H  H90  1  0.50738000  0.79982000  0.43346000  1
  H  H91  1  0.47727000  0.88144000  0.32344000  1
  H  H92  1  0.90355000  0.34996000  0.28930000  1
  H  H93  1  0.04823000  0.26946000  0.17756000  1
  H  H94  1  0.05916000  0.20018000  0.43346000  1
  H  H95  1  0.19929000  0.11856000  0.32344000  1
  H  H96  1  0.45719000  0.34996000  0.28930000  1
  H  H97  1  0.50475000  0.26946000  0.17756000  1
  H  H98  1  0.30720000  0.20018000  0.43346000  1
  H  H99  1  0.35871000  0.11856000  0.32344000  1
  H  H100  1  0.25351000  0.65004000  0.28930000  1
  H  H101  1  0.31769000  0.73054000  0.17756000  1
  H  H102  1  0.25934000  0.79982000  0.43346000  1
  H  H103  1  0.31785000  0.88144000  0.32344000  1
  H  H104  1  0.19285000  0.34996000  0.71070000  1
  H  H105  1  0.22579000  0.26946000  0.82244000  1
  H  H106  1  0.49262000  0.20018000  0.56654000  1
  H  H107  1  0.52273000  0.11856000  0.67656000  1
  H  H108  1  0.09645000  0.65004000  0.71070000  1
  H  H109  1  0.95177000  0.73054000  0.82244000  1
  H  H110  1  0.94084000  0.79982000  0.56654000  1
  H  H111  1  0.80071000  0.88144000  0.67656000  1
  H  H112  1  0.69894000  0.55406000  0.61790000  1
  H  H113  1  0.68316000  0.44594000  0.61790000  1
  H  H114  1  0.74700000  0.55406000  0.38210000  1
  H  H115  1  0.87090000  0.44594000  0.38210000  1
  H  H116  1  0.30106000  0.44594000  0.38210000  1
  H  H117  1  0.31684000  0.55406000  0.38210000  1
  H  H118  1  0.25300000  0.44594000  0.61790000  1
  H  H119  1  0.12910000  0.55406000  0.61790000  1
  H  H120  1  0.56064000  0.83512000  0.46200000  1
  H  H121  1  0.60424000  0.83512000  0.53800000  1
  H  H122  1  0.89576000  0.16488000  0.46200000  1
  H  H123  1  0.93936000  0.16488000  0.53800000  1
  H  H124  1  0.39576000  0.16488000  0.46200000  1
  H  H125  1  0.43936000  0.16488000  0.53800000  1
  H  H126  1  0.06064000  0.83512000  0.46200000  1
  H  H127  1  0.10424000  0.83512000  0.53800000  1
  N  N128  1  0.59940000  0.80120000  0.50000000  1
  N  N129  1  0.90060000  0.19880000  0.50000000  1
  N  N130  1  0.40060000  0.19880000  0.50000000  1
  N  N131  1  0.09940000  0.80120000  0.50000000  1
  O  O132  1  0.55999000  0.91934000  0.80208000  1
  O  O133  1  0.48835000  0.84390000  0.88520000  1
  O  O134  1  0.63793000  0.08066000  0.80208000  1
  O  O135  1  0.62645000  0.15610000  0.88520000  1
  O  O136  1  0.52067000  0.91934000  0.19792000  1
  O  O137  1  0.66775000  0.84390000  0.11480000  1
  O  O138  1  0.28141000  0.08066000  0.19792000  1
  O  O139  1  0.21745000  0.15610000  0.11480000  1
  O  O140  1  0.44001000  0.08066000  0.19792000  1
  O  O141  1  0.51165000  0.15610000  0.11480000  1
  O  O142  1  0.36207000  0.91934000  0.19792000  1
  O  O143  1  0.37355000  0.84390000  0.11480000  1
  O  O144  1  0.47933000  0.08066000  0.80208000  1
  O  O145  1  0.33225000  0.15610000  0.88520000  1
  O  O146  1  0.71859000  0.91934000  0.80208000  1
  O  O147  1  0.78255000  0.84390000  0.88520000  1
  O  O148  1  0.42575000  0.00000000  0.93370000  1
  O  O149  1  0.64055000  0.00000000  0.93370000  1
  O  O150  1  0.57425000  0.00000000  0.06630000  1
  O  O151  1  0.35945000  0.00000000  0.06630000  1
  O  O152  1  0.58770000  0.89138000  0.93322000  1
  O  O153  1  0.47908000  0.10862000  0.93322000  1
  O  O154  1  0.52092000  0.89138000  0.06678000  1
  O  O155  1  0.41230000  0.10862000  0.06678000  1
  Zr  Zr156  1  0.56791000  0.00000000  0.86418000  1
  Zr  Zr157  1  0.43209000  0.00000000  0.13582000  1
  Zr  Zr158  1  0.44811000  0.89132000  0.00000000  1
  Zr  Zr159  1  0.55189000  0.10868000  0.00000000  1
  Zr  Zr160  1  0.66057000  0.89132000  0.00000000  1
  Zr  Zr161  1  0.33943000  0.10868000  0.00000000  1
