# generated using pymatgen
data_Zr3H18C32(NO6)2
_symmetry_space_group_name_H-M   'P 1'
_cell_length_a   15.24600000
_cell_length_b   15.24600000
_cell_length_c   32.06791013
_cell_angle_alpha   103.75167418
_cell_angle_beta   103.75167418
_cell_angle_gamma   90.00000000
_symmetry_Int_Tables_number   1
_chemical_formula_structural   Zr3H18C32(NO6)2
_chemical_formula_sum   'Zr12 H72 C128 N8 O48'
_cell_volume   7020.05224397
_cell_formula_units_Z   4
loop_
 _symmetry_equiv_pos_site_id
 _symmetry_equiv_pos_as_xyz
  1  'x, y, z'
loop_
 _atom_site_type_symbol
 _atom_site_label
 _atom_site_symmetry_multiplicity
 _atom_site_fract_x
 _atom_site_fract_y
 _atom_site_fract_z
 _atom_site_occupancy
  C  C0  1  0.41830000  0.45340000  0.14360000  1
  C  C1  1  0.33812000  0.47122000  0.10984000  1
  C  C2  1  0.27959000  0.53559000  0.12298000  1
  C  C3  1  0.31774000  0.42094000  0.06628000  1
  C  C4  1  0.20078000  0.54758000  0.09336000  1
  C  C5  1  0.23966000  0.43396000  0.03692000  1
  C  C6  1  0.17988000  0.49538000  0.05056000  1
  C  C7  1  0.08694000  0.49984000  0.02228000  1
  C  C8  1  0.19020000  0.41830000  0.64360000  1
  C  C9  1  0.13862000  0.33812000  0.60984000  1
  C  C10  1  0.08739000  0.27959000  0.62298000  1
  C  C11  1  0.14534000  0.31774000  0.56628000  1
  C  C12  1  0.04578000  0.20078000  0.59336000  1
  C  C13  1  0.10296000  0.23966000  0.53692000  1
  C  C14  1  0.05518000  0.17988000  0.55056000  1
  C  C15  1  0.02244000  0.08694000  0.52228000  1
  C  C16  1  0.72530000  0.19020000  0.14360000  1
  C  C17  1  0.77172000  0.13862000  0.10984000  1
  C  C18  1  0.84339000  0.08739000  0.12298000  1
  C  C19  1  0.74854000  0.14534000  0.06628000  1
  C  C20  1  0.89258000  0.04578000  0.09336000  1
  C  C21  1  0.79726000  0.10296000  0.03692000  1
  C  C22  1  0.87068000  0.05518000  0.05056000  1
  C  C23  1  0.93534000  0.02244000  0.02228000  1
  C  C24  1  0.45340000  0.72530000  0.64360000  1
  C  C25  1  0.47122000  0.77172000  0.60984000  1
  C  C26  1  0.53559000  0.84339000  0.62298000  1
  C  C27  1  0.42094000  0.74854000  0.56628000  1
  C  C28  1  0.54758000  0.89258000  0.59336000  1
  C  C29  1  0.43396000  0.79726000  0.53692000  1
  C  C30  1  0.49538000  0.87068000  0.55056000  1
  C  C31  1  0.49984000  0.93534000  0.52228000  1
  C  C32  1  0.27470000  0.54660000  0.85640000  1
  C  C33  1  0.22828000  0.52878000  0.89016000  1
  C  C34  1  0.15661000  0.46441000  0.87702000  1
  C  C35  1  0.25146000  0.57906000  0.93372000  1
  C  C36  1  0.10742000  0.45242000  0.90664000  1
  C  C37  1  0.20274000  0.56604000  0.96308000  1
  C  C38  1  0.12932000  0.50462000  0.94944000  1
  C  C39  1  0.06466000  0.50016000  0.97772000  1
  C  C40  1  0.80980000  0.27470000  0.35640000  1
  C  C41  1  0.86138000  0.22828000  0.39016000  1
  C  C42  1  0.91261000  0.15661000  0.37702000  1
  C  C43  1  0.85466000  0.25146000  0.43372000  1
  C  C44  1  0.95422000  0.10742000  0.40664000  1
  C  C45  1  0.89704000  0.20274000  0.46308000  1
  C  C46  1  0.94482000  0.12932000  0.44944000  1
  C  C47  1  0.97756000  0.06466000  0.47772000  1
  C  C48  1  0.58170000  0.80980000  0.85640000  1
  C  C49  1  0.66188000  0.86138000  0.89016000  1
  C  C50  1  0.72041000  0.91261000  0.87702000  1
  C  C51  1  0.68226000  0.85466000  0.93372000  1
  C  C52  1  0.79922000  0.95422000  0.90664000  1
  C  C53  1  0.76034000  0.89704000  0.96308000  1
  C  C54  1  0.82012000  0.94482000  0.94944000  1
  C  C55  1  0.91306000  0.97756000  0.97772000  1
  C  C56  1  0.54660000  0.58170000  0.35640000  1
  C  C57  1  0.52878000  0.66188000  0.39016000  1
  C  C58  1  0.46441000  0.72041000  0.37702000  1
  C  C59  1  0.57906000  0.68226000  0.43372000  1
  C  C60  1  0.45242000  0.79922000  0.40664000  1
  C  C61  1  0.56604000  0.76034000  0.46308000  1
  C  C62  1  0.50462000  0.82012000  0.44944000  1
  C  C63  1  0.50016000  0.91306000  0.47772000  1
  C  C64  1  0.58170000  0.54660000  0.85640000  1
  C  C65  1  0.66188000  0.52878000  0.89016000  1
  C  C66  1  0.72041000  0.46441000  0.87702000  1
  C  C67  1  0.68226000  0.57906000  0.93372000  1
  C  C68  1  0.79922000  0.45242000  0.90664000  1
  C  C69  1  0.76034000  0.56604000  0.96308000  1
  C  C70  1  0.82012000  0.50462000  0.94944000  1
  C  C71  1  0.91306000  0.50016000  0.97772000  1
  C  C72  1  0.80980000  0.58170000  0.35640000  1
  C  C73  1  0.86138000  0.66188000  0.39016000  1
  C  C74  1  0.91261000  0.72041000  0.37702000  1
  C  C75  1  0.85466000  0.68226000  0.43372000  1
  C  C76  1  0.95422000  0.79922000  0.40664000  1
  C  C77  1  0.89704000  0.76034000  0.46308000  1
  C  C78  1  0.94482000  0.82012000  0.44944000  1
  C  C79  1  0.97756000  0.91306000  0.47772000  1
  C  C80  1  0.27470000  0.80980000  0.85640000  1
  C  C81  1  0.22828000  0.86138000  0.89016000  1
  C  C82  1  0.15661000  0.91261000  0.87702000  1
  C  C83  1  0.25146000  0.85466000  0.93372000  1
  C  C84  1  0.10742000  0.95422000  0.90664000  1
  C  C85  1  0.20274000  0.89704000  0.96308000  1
  C  C86  1  0.12932000  0.94482000  0.94944000  1
  C  C87  1  0.06466000  0.97756000  0.97772000  1
  C  C88  1  0.54660000  0.27470000  0.35640000  1
  C  C89  1  0.52878000  0.22828000  0.39016000  1
  C  C90  1  0.46441000  0.15661000  0.37702000  1
  C  C91  1  0.57906000  0.25146000  0.43372000  1
  C  C92  1  0.45242000  0.10742000  0.40664000  1
  C  C93  1  0.56604000  0.20274000  0.46308000  1
  C  C94  1  0.50462000  0.12932000  0.44944000  1
  C  C95  1  0.50016000  0.06466000  0.47772000  1
  C  C96  1  0.72530000  0.45340000  0.14360000  1
  C  C97  1  0.77172000  0.47122000  0.10984000  1
  C  C98  1  0.84339000  0.53559000  0.12298000  1
  C  C99  1  0.74854000  0.42094000  0.06628000  1
  C  C100  1  0.89258000  0.54758000  0.09336000  1
  C  C101  1  0.79726000  0.43396000  0.03692000  1
  C  C102  1  0.87068000  0.49538000  0.05056000  1
  C  C103  1  0.93534000  0.49984000  0.02228000  1
  C  C104  1  0.19020000  0.72530000  0.64360000  1
  C  C105  1  0.13862000  0.77172000  0.60984000  1
  C  C106  1  0.08739000  0.84339000  0.62298000  1
  C  C107  1  0.14534000  0.74854000  0.56628000  1
  C  C108  1  0.04578000  0.89258000  0.59336000  1
  C  C109  1  0.10296000  0.79726000  0.53692000  1
  C  C110  1  0.05518000  0.87068000  0.55056000  1
  C  C111  1  0.02244000  0.93534000  0.52228000  1
  C  C112  1  0.41830000  0.19020000  0.14360000  1
  C  C113  1  0.33812000  0.13862000  0.10984000  1
  C  C114  1  0.27959000  0.08739000  0.12298000  1
  C  C115  1  0.31774000  0.14534000  0.06628000  1
  C  C116  1  0.20078000  0.04578000  0.09336000  1
  C  C117  1  0.23966000  0.10296000  0.03692000  1
  C  C118  1  0.17988000  0.05518000  0.05056000  1
  C  C119  1  0.08694000  0.02244000  0.02228000  1
  C  C120  1  0.45340000  0.41830000  0.64360000  1
  C  C121  1  0.47122000  0.33812000  0.60984000  1
  C  C122  1  0.53559000  0.27959000  0.62298000  1
  C  C123  1  0.42094000  0.31774000  0.56628000  1
  C  C124  1  0.54758000  0.20078000  0.59336000  1
  C  C125  1  0.43396000  0.23966000  0.53692000  1
  C  C126  1  0.49538000  0.17988000  0.55056000  1
  C  C127  1  0.49984000  0.08694000  0.52228000  1
  H  H128  1  0.29320000  0.57090000  0.15180000  1
  H  H129  1  0.35690000  0.37820000  0.05680000  1
  H  H130  1  0.16190000  0.59100000  0.10240000  1
  H  H131  1  0.22720000  0.40090000  0.00760000  1
  H  H132  1  0.59500000  0.53650000  0.19000000  1
  H  H133  1  0.08090000  0.29320000  0.65180000  1
  H  H134  1  0.17860000  0.35690000  0.55680000  1
  H  H135  1  0.01140000  0.16190000  0.60240000  1
  H  H136  1  0.10670000  0.22720000  0.50760000  1
  H  H137  1  0.15350000  0.59500000  0.69000000  1
  H  H138  1  0.85860000  0.08090000  0.15180000  1
  H  H139  1  0.69990000  0.17860000  0.05680000  1
  H  H140  1  0.94050000  0.01140000  0.10240000  1
  H  H141  1  0.78040000  0.10670000  0.00760000  1
  H  H142  1  0.59500000  0.15350000  0.19000000  1
  H  H143  1  0.57090000  0.85860000  0.65180000  1
  H  H144  1  0.37820000  0.69990000  0.55680000  1
  H  H145  1  0.59100000  0.94050000  0.60240000  1
  H  H146  1  0.40090000  0.78040000  0.50760000  1
  H  H147  1  0.53650000  0.59500000  0.69000000  1
  H  H148  1  0.14140000  0.42910000  0.84820000  1
  H  H149  1  0.30010000  0.62180000  0.94320000  1
  H  H150  1  0.05950000  0.40900000  0.89760000  1
  H  H151  1  0.21960000  0.59910000  0.99240000  1
  H  H152  1  0.40500000  0.46350000  0.81000000  1
  H  H153  1  0.91910000  0.14140000  0.34820000  1
  H  H154  1  0.82140000  0.30010000  0.44320000  1
  H  H155  1  0.98860000  0.05950000  0.39760000  1
  H  H156  1  0.89330000  0.21960000  0.49240000  1
  H  H157  1  0.84650000  0.40500000  0.31000000  1
  H  H158  1  0.70680000  0.91910000  0.84820000  1
  H  H159  1  0.64310000  0.82140000  0.94320000  1
  H  H160  1  0.83810000  0.98860000  0.89760000  1
  H  H161  1  0.77280000  0.89330000  0.99240000  1
  H  H162  1  0.40500000  0.84650000  0.81000000  1
  H  H163  1  0.42910000  0.70680000  0.34820000  1
  H  H164  1  0.62180000  0.64310000  0.44320000  1
  H  H165  1  0.40900000  0.83810000  0.39760000  1
  H  H166  1  0.59910000  0.77280000  0.49240000  1
  H  H167  1  0.46350000  0.40500000  0.31000000  1
  H  H168  1  0.70680000  0.42910000  0.84820000  1
  H  H169  1  0.64310000  0.62180000  0.94320000  1
  H  H170  1  0.83810000  0.40900000  0.89760000  1
  H  H171  1  0.77280000  0.59910000  0.99240000  1
  H  H172  1  0.91910000  0.70680000  0.34820000  1
  H  H173  1  0.82140000  0.64310000  0.44320000  1
  H  H174  1  0.98860000  0.83810000  0.39760000  1
  H  H175  1  0.89330000  0.77280000  0.49240000  1
  H  H176  1  0.14140000  0.91910000  0.84820000  1
  H  H177  1  0.30010000  0.82140000  0.94320000  1
  H  H178  1  0.05950000  0.98860000  0.89760000  1
  H  H179  1  0.21960000  0.89330000  0.99240000  1
  H  H180  1  0.42910000  0.14140000  0.34820000  1
  H  H181  1  0.62180000  0.30010000  0.44320000  1
  H  H182  1  0.40900000  0.05950000  0.39760000  1
  H  H183  1  0.59910000  0.21960000  0.49240000  1
  H  H184  1  0.85860000  0.57090000  0.15180000  1
  H  H185  1  0.69990000  0.37820000  0.05680000  1
  H  H186  1  0.94050000  0.59100000  0.10240000  1
  H  H187  1  0.78040000  0.40090000  0.00760000  1
  H  H188  1  0.08090000  0.85860000  0.65180000  1
  H  H189  1  0.17860000  0.69990000  0.55680000  1
  H  H190  1  0.01140000  0.94050000  0.60240000  1
  H  H191  1  0.10670000  0.78040000  0.50760000  1
  H  H192  1  0.29320000  0.08090000  0.15180000  1
  H  H193  1  0.35690000  0.17860000  0.05680000  1
  H  H194  1  0.16190000  0.01140000  0.10240000  1
  H  H195  1  0.22720000  0.10670000  0.00760000  1
  H  H196  1  0.57090000  0.29320000  0.65180000  1
  H  H197  1  0.37820000  0.35690000  0.55680000  1
  H  H198  1  0.59100000  0.16190000  0.60240000  1
  H  H199  1  0.40090000  0.22720000  0.50760000  1
  N  N200  1  0.02196000  0.50066000  0.04392000  1
  N  N201  1  0.04326000  0.02196000  0.54392000  1
  N  N202  1  0.02196000  0.04326000  0.04392000  1
  N  N203  1  0.50066000  0.02196000  0.54392000  1
  N  N204  1  0.97804000  0.49934000  0.95608000  1
  N  N205  1  0.95674000  0.97804000  0.45608000  1
  N  N206  1  0.97804000  0.95674000  0.95608000  1
  N  N207  1  0.49934000  0.97804000  0.45608000  1
  O  O208  1  0.42133000  0.49284000  0.18338000  1
  O  O209  1  0.47558000  0.40105000  0.13046000  1
  O  O210  1  0.60271000  0.48731000  0.20542000  1
  O  O211  1  0.51007000  0.35776000  0.21552000  1
  O  O212  1  0.19054000  0.42133000  0.68338000  1
  O  O213  1  0.22941000  0.47558000  0.63046000  1
  O  O214  1  0.21811000  0.60271000  0.70542000  1
  O  O215  1  0.35776000  0.51007000  0.71552000  1
  O  O216  1  0.76205000  0.19054000  0.18338000  1
  O  O217  1  0.65488000  0.22941000  0.13046000  1
  O  O218  1  0.60271000  0.21811000  0.20542000  1
  O  O219  1  0.70545000  0.35776000  0.21552000  1
  O  O220  1  0.49284000  0.76205000  0.68338000  1
  O  O221  1  0.40105000  0.65488000  0.63046000  1
  O  O222  1  0.48731000  0.60271000  0.70542000  1
  O  O223  1  0.35776000  0.70545000  0.71552000  1
  O  O224  1  0.23795000  0.50716000  0.81662000  1
  O  O225  1  0.34512000  0.59895000  0.86954000  1
  O  O226  1  0.39729000  0.51269000  0.79458000  1
  O  O227  1  0.29455000  0.64224000  0.78448000  1
  O  O228  1  0.80946000  0.23795000  0.31662000  1
  O  O229  1  0.77059000  0.34512000  0.36954000  1
  O  O230  1  0.78189000  0.39729000  0.29458000  1
  O  O231  1  0.64224000  0.29455000  0.28448000  1
  O  O232  1  0.57867000  0.80946000  0.81662000  1
  O  O233  1  0.52442000  0.77059000  0.86954000  1
  O  O234  1  0.39729000  0.78189000  0.79458000  1
  O  O235  1  0.48993000  0.64224000  0.78448000  1
  O  O236  1  0.50716000  0.57867000  0.31662000  1
  O  O237  1  0.59895000  0.52442000  0.36954000  1
  O  O238  1  0.51269000  0.39729000  0.29458000  1
  O  O239  1  0.64224000  0.48993000  0.28448000  1
  O  O240  1  0.57867000  0.50716000  0.81662000  1
  O  O241  1  0.52442000  0.59895000  0.86954000  1
  O  O242  1  0.80946000  0.57867000  0.31662000  1
  O  O243  1  0.77059000  0.52442000  0.36954000  1
  O  O244  1  0.23795000  0.80946000  0.81662000  1
  O  O245  1  0.34512000  0.77059000  0.86954000  1
  O  O246  1  0.50716000  0.23795000  0.31662000  1
  O  O247  1  0.59895000  0.34512000  0.36954000  1
  O  O248  1  0.76205000  0.49284000  0.18338000  1
  O  O249  1  0.65488000  0.40105000  0.13046000  1
  O  O250  1  0.19054000  0.76205000  0.68338000  1
  O  O251  1  0.22941000  0.65488000  0.63046000  1
  O  O252  1  0.42133000  0.19054000  0.18338000  1
  O  O253  1  0.47558000  0.22941000  0.13046000  1
  O  O254  1  0.49284000  0.42133000  0.68338000  1
  O  O255  1  0.40105000  0.47558000  0.63046000  1
  Zr  Zr256  1  0.50908000  0.49092000  0.25000000  1
  Zr  Zr257  1  0.58411000  0.33411000  0.16822000  1
  Zr  Zr258  1  0.25908000  0.50908000  0.75000000  1
  Zr  Zr259  1  0.33411000  0.58411000  0.66822000  1
  Zr  Zr260  1  0.74092000  0.25908000  0.25000000  1
  Zr  Zr261  1  0.49092000  0.74092000  0.75000000  1
  Zr  Zr262  1  0.41589000  0.66589000  0.83178000  1
  Zr  Zr263  1  0.66589000  0.41589000  0.33178000  1
  Zr  Zr264  1  0.49092000  0.50908000  0.75000000  1
  Zr  Zr265  1  0.74092000  0.49092000  0.25000000  1
  Zr  Zr266  1  0.25908000  0.74092000  0.75000000  1
  Zr  Zr267  1  0.50908000  0.25908000  0.25000000  1
