# generated using pymatgen
data_Zr3H36(C22O7)2
_symmetry_space_group_name_H-M   'P 1'
_cell_length_a   16.05700000
_cell_length_b   23.91000000
_cell_length_c   23.91000000
_cell_angle_alpha   90.00000000
_cell_angle_beta   90.00000000
_cell_angle_gamma   90.00000000
_symmetry_Int_Tables_number   1
_chemical_formula_structural   Zr3H36(C22O7)2
_chemical_formula_sum   'Zr12 H144 C176 O56'
_cell_volume   9179.59582170
_cell_formula_units_Z   4
loop_
 _symmetry_equiv_pos_site_id
 _symmetry_equiv_pos_as_xyz
  1  'x, y, z'
loop_
 _atom_site_type_symbol
 _atom_site_label
 _atom_site_symmetry_multiplicity
 _atom_site_fract_x
 _atom_site_fract_y
 _atom_site_fract_z
 _atom_site_occupancy
  Zr  Zr0  1  0.50000000  0.10232000  0.50000000  1
  Zr  Zr1  1  0.50000000  0.89768000  0.50000000  1
  Zr  Zr2  1  1.00000000  0.50000000  0.10232000  1
  Zr  Zr3  1  1.00000000  0.50000000  0.89768000  1
  Zr  Zr4  1  0.60860000  0.00000000  0.42589000  1
  Zr  Zr5  1  0.60860000  0.00000000  0.57411000  1
  Zr  Zr6  1  0.10860000  0.57411000  0.00000000  1
  Zr  Zr7  1  0.10860000  0.42589000  0.00000000  1
  Zr  Zr8  1  0.39140000  0.00000000  0.42589000  1
  Zr  Zr9  1  0.39140000  0.00000000  0.57411000  1
  Zr  Zr10  1  0.89140000  0.42589000  0.00000000  1
  Zr  Zr11  1  0.89140000  0.57411000  0.00000000  1
  H  H12  1  0.75670000  0.12670000  0.33220000  1
  H  H13  1  0.81110000  0.19620000  0.27230000  1
  H  H14  1  0.58950000  0.23890000  0.39390000  1
  H  H15  1  0.57790000  0.32850000  0.36770000  1
  H  H16  1  0.66330000  0.35530000  0.35030000  1
  H  H17  1  0.59920000  0.33730000  0.30430000  1
  H  H18  1  0.45120000  0.10730000  0.08350000  1
  H  H19  1  0.75670000  0.87330000  0.66780000  1
  H  H20  1  0.81110000  0.80380000  0.72770000  1
  H  H21  1  0.58950000  0.76110000  0.60610000  1
  H  H22  1  0.57790000  0.67150000  0.63230000  1
  H  H23  1  0.66330000  0.64470000  0.64970000  1
  H  H24  1  0.59920000  0.66270000  0.69570000  1
  H  H25  1  0.45120000  0.89270000  0.91650000  1
  H  H26  1  0.25670000  0.66780000  0.12670000  1
  H  H27  1  0.31110000  0.72770000  0.19620000  1
  H  H28  1  0.08950000  0.60610000  0.23890000  1
  H  H29  1  0.07790000  0.63230000  0.32850000  1
  H  H30  1  0.16330000  0.64970000  0.35530000  1
  H  H31  1  0.09920000  0.69570000  0.33730000  1
  H  H32  1  0.95120000  0.91650000  0.10730000  1
  H  H33  1  0.25670000  0.33220000  0.87330000  1
  H  H34  1  0.31110000  0.27230000  0.80380000  1
  H  H35  1  0.08950000  0.39390000  0.76110000  1
  H  H36  1  0.07790000  0.36770000  0.67150000  1
  H  H37  1  0.16330000  0.35030000  0.64470000  1
  H  H38  1  0.09920000  0.30430000  0.66270000  1
  H  H39  1  0.95120000  0.08350000  0.89270000  1
  H  H40  1  0.24330000  0.87330000  0.33220000  1
  H  H41  1  0.18890000  0.80380000  0.27230000  1
  H  H42  1  0.41050000  0.76110000  0.39390000  1
  H  H43  1  0.42210000  0.67150000  0.36770000  1
  H  H44  1  0.33670000  0.64470000  0.35030000  1
  H  H45  1  0.40080000  0.66270000  0.30430000  1
  H  H46  1  0.54880000  0.89270000  0.08350000  1
  H  H47  1  0.24330000  0.12670000  0.66780000  1
  H  H48  1  0.18890000  0.19620000  0.72770000  1
  H  H49  1  0.41050000  0.23890000  0.60610000  1
  H  H50  1  0.42210000  0.32850000  0.63230000  1
  H  H51  1  0.33670000  0.35530000  0.64970000  1
  H  H52  1  0.40080000  0.33730000  0.69570000  1
  H  H53  1  0.54880000  0.10730000  0.91650000  1
  H  H54  1  0.74330000  0.33220000  0.12670000  1
  H  H55  1  0.68890000  0.27230000  0.19620000  1
  H  H56  1  0.91050000  0.39390000  0.23890000  1
  H  H57  1  0.92210000  0.36770000  0.32850000  1
  H  H58  1  0.83670000  0.35030000  0.35530000  1
  H  H59  1  0.90080000  0.30430000  0.33730000  1
  H  H60  1  0.04880000  0.08350000  0.10730000  1
  H  H61  1  0.74330000  0.66780000  0.87330000  1
  H  H62  1  0.68890000  0.72770000  0.80380000  1
  H  H63  1  0.91050000  0.60610000  0.76110000  1
  H  H64  1  0.92210000  0.63230000  0.67150000  1
  H  H65  1  0.83670000  0.64970000  0.64470000  1
  H  H66  1  0.90080000  0.69570000  0.66270000  1
  H  H67  1  0.04880000  0.91650000  0.89270000  1
  H  H68  1  0.24330000  0.87330000  0.66780000  1
  H  H69  1  0.18890000  0.80380000  0.72770000  1
  H  H70  1  0.41050000  0.76110000  0.60610000  1
  H  H71  1  0.42210000  0.67150000  0.63230000  1
  H  H72  1  0.33670000  0.64470000  0.64970000  1
  H  H73  1  0.40080000  0.66270000  0.69570000  1
  H  H74  1  0.54880000  0.89270000  0.91650000  1
  H  H75  1  0.24330000  0.12670000  0.33220000  1
  H  H76  1  0.18890000  0.19620000  0.27230000  1
  H  H77  1  0.41050000  0.23890000  0.39390000  1
  H  H78  1  0.42210000  0.32850000  0.36770000  1
  H  H79  1  0.33670000  0.35530000  0.35030000  1
  H  H80  1  0.40080000  0.33730000  0.30430000  1
  H  H81  1  0.54880000  0.10730000  0.08350000  1
  H  H82  1  0.74330000  0.33220000  0.87330000  1
  H  H83  1  0.68890000  0.27230000  0.80380000  1
  H  H84  1  0.91050000  0.39390000  0.76110000  1
  H  H85  1  0.92210000  0.36770000  0.67150000  1
  H  H86  1  0.83670000  0.35030000  0.64470000  1
  H  H87  1  0.90080000  0.30430000  0.66270000  1
  H  H88  1  0.04880000  0.08350000  0.89270000  1
  H  H89  1  0.74330000  0.66780000  0.12670000  1
  H  H90  1  0.68890000  0.72770000  0.19620000  1
  H  H91  1  0.91050000  0.60610000  0.23890000  1
  H  H92  1  0.92210000  0.63230000  0.32850000  1
  H  H93  1  0.83670000  0.64970000  0.35530000  1
  H  H94  1  0.90080000  0.69570000  0.33730000  1
  H  H95  1  0.04880000  0.91650000  0.10730000  1
  H  H96  1  0.75670000  0.12670000  0.66780000  1
  H  H97  1  0.81110000  0.19620000  0.72770000  1
  H  H98  1  0.58950000  0.23890000  0.60610000  1
  H  H99  1  0.57790000  0.32850000  0.63230000  1
  H  H100  1  0.66330000  0.35530000  0.64970000  1
  H  H101  1  0.59920000  0.33730000  0.69570000  1
  H  H102  1  0.45120000  0.10730000  0.91650000  1
  H  H103  1  0.75670000  0.87330000  0.33220000  1
  H  H104  1  0.81110000  0.80380000  0.27230000  1
  H  H105  1  0.58950000  0.76110000  0.39390000  1
  H  H106  1  0.57790000  0.67150000  0.36770000  1
  H  H107  1  0.66330000  0.64470000  0.35030000  1
  H  H108  1  0.59920000  0.66270000  0.30430000  1
  H  H109  1  0.45120000  0.89270000  0.08350000  1
  H  H110  1  0.25670000  0.66780000  0.87330000  1
  H  H111  1  0.31110000  0.72770000  0.80380000  1
  H  H112  1  0.08950000  0.60610000  0.76110000  1
  H  H113  1  0.07790000  0.63230000  0.67150000  1
  H  H114  1  0.16330000  0.64970000  0.64470000  1
  H  H115  1  0.09920000  0.69570000  0.66270000  1
  H  H116  1  0.95120000  0.91650000  0.89270000  1
  H  H117  1  0.25670000  0.33220000  0.12670000  1
  H  H118  1  0.31110000  0.27230000  0.19620000  1
  H  H119  1  0.08950000  0.39390000  0.23890000  1
  H  H120  1  0.07790000  0.36770000  0.32850000  1
  H  H121  1  0.16330000  0.35030000  0.35530000  1
  H  H122  1  0.09920000  0.30430000  0.33730000  1
  H  H123  1  0.95120000  0.08350000  0.10730000  1
  H  H124  1  0.62670000  0.00000000  0.23030000  1
  H  H125  1  0.62620000  1.00000000  0.13220000  1
  H  H126  1  0.62670000  1.00000000  0.76970000  1
  H  H127  1  0.62620000  0.00000000  0.86780000  1
  H  H128  1  0.12670000  0.76970000  0.00000000  1
  H  H129  1  0.12620000  0.86780000  0.00000000  1
  H  H130  1  0.12670000  0.23030000  0.00000000  1
  H  H131  1  0.12620000  0.13220000  0.00000000  1
  H  H132  1  0.37330000  0.00000000  0.23030000  1
  H  H133  1  0.37380000  1.00000000  0.13220000  1
  H  H134  1  0.37330000  1.00000000  0.76970000  1
  H  H135  1  0.37380000  0.00000000  0.86780000  1
  H  H136  1  0.87330000  0.23030000  0.00000000  1
  H  H137  1  0.87380000  0.13220000  0.00000000  1
  H  H138  1  0.87330000  0.76970000  0.00000000  1
  H  H139  1  0.87380000  0.86780000  0.00000000  1
  H  H140  1  0.50000000  0.13560000  0.03430000  1
  H  H141  1  0.50000000  0.07850000  0.38260000  1
  H  H142  1  0.50000000  0.86440000  0.96570000  1
  H  H143  1  0.50000000  0.92150000  0.61740000  1
  H  H144  1  1.00000000  0.96570000  0.13560000  1
  H  H145  1  0.00000000  0.61740000  0.07850000  1
  H  H146  1  0.00000000  0.03430000  0.86440000  1
  H  H147  1  0.00000000  0.38260000  0.92150000  1
  H  H148  1  0.50000000  0.86440000  0.03430000  1
  H  H149  1  0.50000000  0.92150000  0.38260000  1
  H  H150  1  0.50000000  0.13560000  0.96570000  1
  H  H151  1  0.50000000  0.07850000  0.61740000  1
  H  H152  1  0.00000000  0.03430000  0.13560000  1
  H  H153  1  0.00000000  0.38260000  0.07850000  1
  H  H154  1  1.00000000  0.96570000  0.86440000  1
  H  H155  1  0.00000000  0.61740000  0.92150000  1
  C  C156  1  0.63040000  0.13400000  0.40760000  1
  C  C157  1  0.66780000  0.17650000  0.36840000  1
  C  C158  1  0.73320000  0.16364000  0.33260000  1
  C  C159  1  0.76540000  0.20450000  0.29730000  1
  C  C160  1  0.73220000  0.25820000  0.29790000  1
  C  C161  1  0.66680000  0.27099000  0.33370000  1
  C  C162  1  0.63460000  0.23020000  0.36900000  1
  C  C163  1  0.62170000  0.32820000  0.34030000  1
  C  C164  1  0.63040000  0.86600000  0.59240000  1
  C  C165  1  0.66780000  0.82350000  0.63160000  1
  C  C166  1  0.73320000  0.83636000  0.66740000  1
  C  C167  1  0.76540000  0.79550000  0.70270000  1
  C  C168  1  0.73220000  0.74180000  0.70210000  1
  C  C169  1  0.66680000  0.72901000  0.66630000  1
  C  C170  1  0.63460000  0.76980000  0.63100000  1
  C  C171  1  0.62170000  0.67180000  0.65970000  1
  C  C172  1  0.13040000  0.59240000  0.13400000  1
  C  C173  1  0.16780000  0.63160000  0.17650000  1
  C  C174  1  0.23320000  0.66740000  0.16364000  1
  C  C175  1  0.26540000  0.70270000  0.20450000  1
  C  C176  1  0.23220000  0.70210000  0.25820000  1
  C  C177  1  0.16680000  0.66630000  0.27099000  1
  C  C178  1  0.13460000  0.63100000  0.23020000  1
  C  C179  1  0.12170000  0.65970000  0.32820000  1
  C  C180  1  0.13040000  0.40760000  0.86600000  1
  C  C181  1  0.16780000  0.36840000  0.82350000  1
  C  C182  1  0.23320000  0.33260000  0.83636000  1
  C  C183  1  0.26540000  0.29730000  0.79550000  1
  C  C184  1  0.23220000  0.29790000  0.74180000  1
  C  C185  1  0.16680000  0.33370000  0.72901000  1
  C  C186  1  0.13460000  0.36900000  0.76980000  1
  C  C187  1  0.12170000  0.34030000  0.67180000  1
  C  C188  1  0.36960000  0.86600000  0.40760000  1
  C  C189  1  0.33220000  0.82350000  0.36840000  1
  C  C190  1  0.26680000  0.83636000  0.33260000  1
  C  C191  1  0.23460000  0.79550000  0.29730000  1
  C  C192  1  0.26780000  0.74180000  0.29790000  1
  C  C193  1  0.33320000  0.72901000  0.33370000  1
  C  C194  1  0.36540000  0.76980000  0.36900000  1
  C  C195  1  0.37830000  0.67180000  0.34030000  1
  C  C196  1  0.36960000  0.13400000  0.59240000  1
  C  C197  1  0.33220000  0.17650000  0.63160000  1
  C  C198  1  0.26680000  0.16364000  0.66740000  1
  C  C199  1  0.23460000  0.20450000  0.70270000  1
  C  C200  1  0.26780000  0.25820000  0.70210000  1
  C  C201  1  0.33320000  0.27099000  0.66630000  1
  C  C202  1  0.36540000  0.23020000  0.63100000  1
  C  C203  1  0.37830000  0.32820000  0.65970000  1
  C  C204  1  0.86960000  0.40760000  0.13400000  1
  C  C205  1  0.83220000  0.36840000  0.17650000  1
  C  C206  1  0.76680000  0.33260000  0.16364000  1
  C  C207  1  0.73460000  0.29730000  0.20450000  1
  C  C208  1  0.76780000  0.29790000  0.25820000  1
  C  C209  1  0.83320000  0.33370000  0.27099000  1
  C  C210  1  0.86540000  0.36900000  0.23020000  1
  C  C211  1  0.87830000  0.34030000  0.32820000  1
  C  C212  1  0.86960000  0.59240000  0.86600000  1
  C  C213  1  0.83220000  0.63160000  0.82350000  1
  C  C214  1  0.76680000  0.66740000  0.83636000  1
  C  C215  1  0.73460000  0.70270000  0.79550000  1
  C  C216  1  0.76780000  0.70210000  0.74180000  1
  C  C217  1  0.83320000  0.66630000  0.72901000  1
  C  C218  1  0.86540000  0.63100000  0.76980000  1
  C  C219  1  0.87830000  0.65970000  0.67180000  1
  C  C220  1  0.36960000  0.86600000  0.59240000  1
  C  C221  1  0.33220000  0.82350000  0.63160000  1
  C  C222  1  0.26680000  0.83636000  0.66740000  1
  C  C223  1  0.23460000  0.79550000  0.70270000  1
  C  C224  1  0.26780000  0.74180000  0.70210000  1
  C  C225  1  0.33320000  0.72901000  0.66630000  1
  C  C226  1  0.36540000  0.76980000  0.63100000  1
  C  C227  1  0.37830000  0.67180000  0.65970000  1
  C  C228  1  0.36960000  0.13400000  0.40760000  1
  C  C229  1  0.33220000  0.17650000  0.36840000  1
  C  C230  1  0.26680000  0.16364000  0.33260000  1
  C  C231  1  0.23460000  0.20450000  0.29730000  1
  C  C232  1  0.26780000  0.25820000  0.29790000  1
  C  C233  1  0.33320000  0.27099000  0.33370000  1
  C  C234  1  0.36540000  0.23020000  0.36900000  1
  C  C235  1  0.37830000  0.32820000  0.34030000  1
  C  C236  1  0.86960000  0.40760000  0.86600000  1
  C  C237  1  0.83220000  0.36840000  0.82350000  1
  C  C238  1  0.76680000  0.33260000  0.83636000  1
  C  C239  1  0.73460000  0.29730000  0.79550000  1
  C  C240  1  0.76780000  0.29790000  0.74180000  1
  C  C241  1  0.83320000  0.33370000  0.72901000  1
  C  C242  1  0.86540000  0.36900000  0.76980000  1
  C  C243  1  0.87830000  0.34030000  0.67180000  1
  C  C244  1  0.86960000  0.59240000  0.13400000  1
  C  C245  1  0.83220000  0.63160000  0.17650000  1
  C  C246  1  0.76680000  0.66740000  0.16364000  1
  C  C247  1  0.73460000  0.70270000  0.20450000  1
  C  C248  1  0.76780000  0.70210000  0.25820000  1
  C  C249  1  0.83320000  0.66630000  0.27099000  1
  C  C250  1  0.86540000  0.63100000  0.23020000  1
  C  C251  1  0.87830000  0.65970000  0.32820000  1
  C  C252  1  0.63040000  0.13400000  0.59240000  1
  C  C253  1  0.66780000  0.17650000  0.63160000  1
  C  C254  1  0.73320000  0.16364000  0.66740000  1
  C  C255  1  0.76540000  0.20450000  0.70270000  1
  C  C256  1  0.73220000  0.25820000  0.70210000  1
  C  C257  1  0.66680000  0.27099000  0.66630000  1
  C  C258  1  0.63460000  0.23020000  0.63100000  1
  C  C259  1  0.62170000  0.32820000  0.65970000  1
  C  C260  1  0.63040000  0.86600000  0.40760000  1
  C  C261  1  0.66780000  0.82350000  0.36840000  1
  C  C262  1  0.73320000  0.83636000  0.33260000  1
  C  C263  1  0.76540000  0.79550000  0.29730000  1
  C  C264  1  0.73220000  0.74180000  0.29790000  1
  C  C265  1  0.66680000  0.72901000  0.33370000  1
  C  C266  1  0.63460000  0.76980000  0.36900000  1
  C  C267  1  0.62170000  0.67180000  0.34030000  1
  C  C268  1  0.13040000  0.59240000  0.86600000  1
  C  C269  1  0.16780000  0.63160000  0.82350000  1
  C  C270  1  0.23320000  0.66740000  0.83636000  1
  C  C271  1  0.26540000  0.70270000  0.79550000  1
  C  C272  1  0.23220000  0.70210000  0.74180000  1
  C  C273  1  0.16680000  0.66630000  0.72901000  1
  C  C274  1  0.13460000  0.63100000  0.76980000  1
  C  C275  1  0.12170000  0.65970000  0.67180000  1
  C  C276  1  0.13040000  0.40760000  0.13400000  1
  C  C277  1  0.16780000  0.36840000  0.17650000  1
  C  C278  1  0.23320000  0.33260000  0.16364000  1
  C  C279  1  0.26540000  0.29730000  0.20450000  1
  C  C280  1  0.23220000  0.29790000  0.25820000  1
  C  C281  1  0.16680000  0.33370000  0.27099000  1
  C  C282  1  0.13460000  0.36900000  0.23020000  1
  C  C283  1  0.12170000  0.34030000  0.32820000  1
  C  C284  1  0.57496000  0.00000000  0.21023000  1
  C  C285  1  0.57496000  0.00000000  0.15209000  1
  C  C286  1  0.57496000  1.00000000  0.78977000  1
  C  C287  1  0.57496000  0.00000000  0.84791000  1
  C  C288  1  0.07496000  0.78977000  0.00000000  1
  C  C289  1  0.07496000  0.84791000  0.00000000  1
  C  C290  1  0.07496000  0.21023000  0.00000000  1
  C  C291  1  0.07496000  0.15209000  0.00000000  1
  C  C292  1  0.42504000  0.00000000  0.21023000  1
  C  C293  1  0.42504000  0.00000000  0.15209000  1
  C  C294  1  0.42504000  1.00000000  0.78977000  1
  C  C295  1  0.42504000  0.00000000  0.84791000  1
  C  C296  1  0.92504000  0.21023000  0.00000000  1
  C  C297  1  0.92504000  0.15209000  0.00000000  1
  C  C298  1  0.92504000  0.78977000  0.00000000  1
  C  C299  1  0.92504000  0.84791000  0.00000000  1
  C  C300  1  0.50000000  0.05031000  0.02910000  1
  C  C301  1  0.50000000  0.10511000  0.06038000  1
  C  C302  1  0.50000000  0.94969000  0.97090000  1
  C  C303  1  0.50000000  0.89489000  0.93962000  1
  C  C304  1  1.00000000  0.97090000  0.05031000  1
  C  C305  1  0.00000000  0.93962000  0.10511000  1
  C  C306  1  1.00000000  0.02910000  0.94969000  1
  C  C307  1  1.00000000  0.06038000  0.89489000  1
  C  C308  1  0.50000000  0.94969000  0.02910000  1
  C  C309  1  0.50000000  0.89489000  0.06038000  1
  C  C310  1  0.50000000  0.05031000  0.97090000  1
  C  C311  1  0.50000000  0.10511000  0.93962000  1
  C  C312  1  0.00000000  0.02910000  0.05031000  1
  C  C313  1  0.00000000  0.06038000  0.10511000  1
  C  C314  1  1.00000000  0.97090000  0.94969000  1
  C  C315  1  1.00000000  0.93962000  0.89489000  1
  C  C316  1  0.50000000  0.00000000  0.30338000  1
  C  C317  1  0.50000000  1.00000000  0.23933000  1
  C  C318  1  0.50000000  0.00000000  0.12290000  1
  C  C319  1  0.50000000  1.00000000  0.05846000  1
  C  C320  1  0.50000000  0.00000000  0.69662000  1
  C  C321  1  0.50000000  0.00000000  0.76067000  1
  C  C322  1  0.50000000  0.00000000  0.87710000  1
  C  C323  1  0.50000000  0.00000000  0.94154000  1
  C  C324  1  0.00000000  0.69662000  0.00000000  1
  C  C325  1  1.00000000  0.76067000  0.00000000  1
  C  C326  1  1.00000000  0.87710000  0.00000000  1
  C  C327  1  1.00000000  0.94154000  0.00000000  1
  C  C328  1  0.00000000  0.30338000  0.00000000  1
  C  C329  1  0.00000000  0.23933000  0.00000000  1
  C  C330  1  0.00000000  0.12290000  0.00000000  1
  C  C331  1  0.00000000  0.05846000  0.00000000  1
  O  O332  1  0.58260000  0.14934000  0.44517000  1
  O  O333  1  0.65060000  0.08280000  0.39530000  1
  O  O334  1  0.58260000  0.85066000  0.55483000  1
  O  O335  1  0.65060000  0.91720000  0.60470000  1
  O  O336  1  0.08260000  0.55483000  0.14934000  1
  O  O337  1  0.15060000  0.60470000  0.08280000  1
  O  O338  1  0.08260000  0.44517000  0.85066000  1
  O  O339  1  0.15060000  0.39530000  0.91720000  1
  O  O340  1  0.41740000  0.85066000  0.44517000  1
  O  O341  1  0.34940000  0.91720000  0.39530000  1
  O  O342  1  0.41740000  0.14934000  0.55483000  1
  O  O343  1  0.34940000  0.08280000  0.60470000  1
  O  O344  1  0.91740000  0.44517000  0.14934000  1
  O  O345  1  0.84940000  0.39530000  0.08280000  1
  O  O346  1  0.91740000  0.55483000  0.85066000  1
  O  O347  1  0.84940000  0.60470000  0.91720000  1
  O  O348  1  0.41740000  0.85066000  0.55483000  1
  O  O349  1  0.34940000  0.91720000  0.60470000  1
  O  O350  1  0.41740000  0.14934000  0.44517000  1
  O  O351  1  0.34940000  0.08280000  0.39530000  1
  O  O352  1  0.91740000  0.44517000  0.85066000  1
  O  O353  1  0.84940000  0.39530000  0.91720000  1
  O  O354  1  0.91740000  0.55483000  0.14934000  1
  O  O355  1  0.84940000  0.60470000  0.08280000  1
  O  O356  1  0.58260000  0.14934000  0.55483000  1
  O  O357  1  0.65060000  0.08280000  0.60470000  1
  O  O358  1  0.58260000  0.85066000  0.44517000  1
  O  O359  1  0.65060000  0.91720000  0.39530000  1
  O  O360  1  0.08260000  0.55483000  0.85066000  1
  O  O361  1  0.15060000  0.60470000  0.91720000  1
  O  O362  1  0.08260000  0.44517000  0.14934000  1
  O  O363  1  0.15060000  0.39530000  0.08280000  1
  O  O364  1  0.56919000  0.00000000  0.32754000  1
  O  O365  1  0.56919000  1.00000000  0.67246000  1
  O  O366  1  0.06919000  0.67246000  0.00000000  1
  O  O367  1  0.06919000  0.32754000  0.00000000  1
  O  O368  1  0.43081000  0.00000000  0.32754000  1
  O  O369  1  0.43081000  1.00000000  0.67246000  1
  O  O370  1  0.93081000  0.32754000  0.00000000  1
  O  O371  1  0.93081000  0.67246000  0.00000000  1
  O  O372  1  0.50000000  0.05690000  0.41560000  1
  O  O373  1  0.50000000  0.94310000  0.58440000  1
  O  O374  1  0.00000000  0.58440000  0.05690000  1
  O  O375  1  0.00000000  0.41560000  0.94310000  1
  O  O376  1  0.50000000  0.94310000  0.41560000  1
  O  O377  1  0.50000000  0.05690000  0.58440000  1
  O  O378  1  1.00000000  0.41560000  0.05690000  1
  O  O379  1  0.00000000  0.58440000  0.94310000  1
  O  O380  1  0.62620000  0.05360000  0.50000000  1
  O  O381  1  0.62620000  0.94640000  0.50000000  1
  O  O382  1  0.12620000  0.50000000  0.05360000  1
  O  O383  1  0.12620000  0.50000000  0.94640000  1
  O  O384  1  0.37380000  0.94640000  0.50000000  1
  O  O385  1  0.37380000  0.05360000  0.50000000  1
  O  O386  1  0.87380000  0.50000000  0.05360000  1
  O  O387  1  0.87380000  0.50000000  0.94640000  1
