# generated using pymatgen
data_Zr3H24(C8O3)4
_symmetry_space_group_name_H-M   'P 1'
_cell_length_a   14.39850000
_cell_length_b   24.44430000
_cell_length_c   24.44430000
_cell_angle_alpha   90.00000000
_cell_angle_beta   90.00000000
_cell_angle_gamma   90.00000000
_symmetry_Int_Tables_number   1
_chemical_formula_structural   Zr3H24(C8O3)4
_chemical_formula_sum   'Zr12 H96 C128 O48'
_cell_volume   8603.44647015
_cell_formula_units_Z   4
loop_
 _symmetry_equiv_pos_site_id
 _symmetry_equiv_pos_as_xyz
  1  'x, y, z'
loop_
 _atom_site_type_symbol
 _atom_site_label
 _atom_site_symmetry_multiplicity
 _atom_site_fract_x
 _atom_site_fract_y
 _atom_site_fract_z
 _atom_site_occupancy
  Zr  Zr0  1  0.37775000  0.07243000  0.50000000  1
  Zr  Zr1  1  0.50000000  0.00000000  0.39994000  1
  Zr  Zr2  1  0.87775000  0.50000000  0.07243000  1
  Zr  Zr3  1  1.00000000  0.60006000  0.00000000  1
  Zr  Zr4  1  0.37775000  0.92757000  0.50000000  1
  Zr  Zr5  1  0.50000000  0.00000000  0.60006000  1
  Zr  Zr6  1  0.87775000  0.50000000  0.92757000  1
  Zr  Zr7  1  1.00000000  0.39994000  0.00000000  1
  Zr  Zr8  1  0.62225000  0.07243000  0.50000000  1
  Zr  Zr9  1  0.12225000  0.50000000  0.07243000  1
  Zr  Zr10  1  0.62225000  0.92757000  0.50000000  1
  Zr  Zr11  1  0.12225000  0.50000000  0.92757000  1
  H  H12  1  0.40251000  0.10044000  0.26658000  1
  H  H13  1  0.18297000  0.23295000  0.30618000  1
  H  H14  1  0.22691000  0.16854000  0.37210000  1
  H  H15  1  0.41648000  0.12959000  0.17427000  1
  H  H16  1  0.41176000  0.19486000  0.17004000  1
  H  H17  1  0.32777000  0.15845000  0.14739000  1
  H  H18  1  0.90251000  0.73342000  0.10044000  1
  H  H19  1  0.68297000  0.69382000  0.23295000  1
  H  H20  1  0.72691000  0.62790000  0.16854000  1
  H  H21  1  0.91648000  0.82573000  0.12959000  1
  H  H22  1  0.91176000  0.82996000  0.19486000  1
  H  H23  1  0.82777000  0.85261000  0.15845000  1
  H  H24  1  0.40251000  0.89956000  0.73342000  1
  H  H25  1  0.18297000  0.76705000  0.69382000  1
  H  H26  1  0.22691000  0.83146000  0.62790000  1
  H  H27  1  0.41648000  0.87041000  0.82573000  1
  H  H28  1  0.41176000  0.80514000  0.82996000  1
  H  H29  1  0.32777000  0.84155000  0.85261000  1
  H  H30  1  0.90251000  0.26658000  0.89956000  1
  H  H31  1  0.68297000  0.30618000  0.76705000  1
  H  H32  1  0.72691000  0.37210000  0.83146000  1
  H  H33  1  0.91648000  0.17427000  0.87041000  1
  H  H34  1  0.91176000  0.17004000  0.80514000  1
  H  H35  1  0.82777000  0.14739000  0.84155000  1
  H  H36  1  0.59749000  0.10044000  0.73342000  1
  H  H37  1  0.81703000  0.23295000  0.69382000  1
  H  H38  1  0.77309000  0.16854000  0.62790000  1
  H  H39  1  0.58352000  0.12959000  0.82573000  1
  H  H40  1  0.58824000  0.19486000  0.82996000  1
  H  H41  1  0.67223000  0.15845000  0.85261000  1
  H  H42  1  0.09749000  0.26658000  0.10044000  1
  H  H43  1  0.31703000  0.30618000  0.23295000  1
  H  H44  1  0.27309000  0.37210000  0.16854000  1
  H  H45  1  0.08352000  0.17427000  0.12959000  1
  H  H46  1  0.08824000  0.17004000  0.19486000  1
  H  H47  1  0.17223000  0.14739000  0.15845000  1
  H  H48  1  0.59749000  0.89956000  0.26658000  1
  H  H49  1  0.81703000  0.76705000  0.30618000  1
  H  H50  1  0.77309000  0.83146000  0.37210000  1
  H  H51  1  0.58352000  0.87041000  0.17427000  1
  H  H52  1  0.58824000  0.80514000  0.17004000  1
  H  H53  1  0.67223000  0.84155000  0.14739000  1
  H  H54  1  0.09749000  0.73342000  0.89956000  1
  H  H55  1  0.31703000  0.69382000  0.76705000  1
  H  H56  1  0.27309000  0.62790000  0.83146000  1
  H  H57  1  0.08352000  0.82573000  0.87041000  1
  H  H58  1  0.08824000  0.82996000  0.80514000  1
  H  H59  1  0.17223000  0.85261000  0.84155000  1
  H  H60  1  0.59749000  0.89956000  0.73342000  1
  H  H61  1  0.81703000  0.76705000  0.69382000  1
  H  H62  1  0.77309000  0.83146000  0.62790000  1
  H  H63  1  0.58352000  0.87041000  0.82573000  1
  H  H64  1  0.58824000  0.80514000  0.82996000  1
  H  H65  1  0.67223000  0.84155000  0.85261000  1
  H  H66  1  0.09749000  0.26658000  0.89956000  1
  H  H67  1  0.31703000  0.30618000  0.76705000  1
  H  H68  1  0.27309000  0.37210000  0.83146000  1
  H  H69  1  0.08352000  0.17427000  0.87041000  1
  H  H70  1  0.08824000  0.17004000  0.80514000  1
  H  H71  1  0.17223000  0.14739000  0.84155000  1
  H  H72  1  0.59749000  0.10044000  0.26658000  1
  H  H73  1  0.81703000  0.23295000  0.30618000  1
  H  H74  1  0.77309000  0.16854000  0.37210000  1
  H  H75  1  0.58352000  0.12959000  0.17427000  1
  H  H76  1  0.58824000  0.19486000  0.17004000  1
  H  H77  1  0.67223000  0.15845000  0.14739000  1
  H  H78  1  0.09749000  0.73342000  0.10044000  1
  H  H79  1  0.31703000  0.69382000  0.23295000  1
  H  H80  1  0.27309000  0.62790000  0.16854000  1
  H  H81  1  0.08352000  0.82573000  0.12959000  1
  H  H82  1  0.08824000  0.82996000  0.19486000  1
  H  H83  1  0.17223000  0.85261000  0.15845000  1
  H  H84  1  0.40251000  0.89956000  0.26658000  1
  H  H85  1  0.18297000  0.76705000  0.30618000  1
  H  H86  1  0.22691000  0.83146000  0.37210000  1
  H  H87  1  0.41648000  0.87041000  0.17427000  1
  H  H88  1  0.41176000  0.80514000  0.17004000  1
  H  H89  1  0.32777000  0.84155000  0.14739000  1
  H  H90  1  0.90251000  0.73342000  0.89956000  1
  H  H91  1  0.68297000  0.69382000  0.76705000  1
  H  H92  1  0.72691000  0.62790000  0.83146000  1
  H  H93  1  0.91648000  0.82573000  0.87041000  1
  H  H94  1  0.91176000  0.82996000  0.80514000  1
  H  H95  1  0.82777000  0.85261000  0.84155000  1
  H  H96  1  0.40251000  0.10044000  0.73342000  1
  H  H97  1  0.18297000  0.23295000  0.69382000  1
  H  H98  1  0.22691000  0.16854000  0.62790000  1
  H  H99  1  0.41648000  0.12959000  0.82573000  1
  H  H100  1  0.41176000  0.19486000  0.82996000  1
  H  H101  1  0.32777000  0.15845000  0.85261000  1
  H  H102  1  0.90251000  0.26658000  0.10044000  1
  H  H103  1  0.68297000  0.30618000  0.23295000  1
  H  H104  1  0.72691000  0.37210000  0.16854000  1
  H  H105  1  0.91648000  0.17427000  0.12959000  1
  H  H106  1  0.91176000  0.17004000  0.19486000  1
  H  H107  1  0.82777000  0.14739000  0.15845000  1
  C  C108  1  0.35640000  0.09190000  0.36771000  1
  C  C109  1  0.32020000  0.12970000  0.32530000  1
  C  C110  1  0.35670000  0.12730000  0.27440000  1
  C  C111  1  0.32870000  0.16400000  0.23190000  1
  C  C112  1  0.26570000  0.20290000  0.24490000  1
  C  C113  1  0.22730000  0.20550000  0.29750000  1
  C  C114  1  0.25460000  0.16770000  0.33680000  1
  C  C115  1  0.37540000  0.16150000  0.17590000  1
  C  C116  1  0.85640000  0.63229000  0.09190000  1
  C  C117  1  0.82020000  0.67470000  0.12970000  1
  C  C118  1  0.85670000  0.72560000  0.12730000  1
  C  C119  1  0.82870000  0.76810000  0.16400000  1
  C  C120  1  0.76570000  0.75510000  0.20290000  1
  C  C121  1  0.72730000  0.70250000  0.20550000  1
  C  C122  1  0.75460000  0.66320000  0.16770000  1
  C  C123  1  0.87540000  0.82410000  0.16150000  1
  C  C124  1  0.35640000  0.90810000  0.63229000  1
  C  C125  1  0.32020000  0.87030000  0.67470000  1
  C  C126  1  0.35670000  0.87270000  0.72560000  1
  C  C127  1  0.32870000  0.83600000  0.76810000  1
  C  C128  1  0.26570000  0.79710000  0.75510000  1
  C  C129  1  0.22730000  0.79450000  0.70250000  1
  C  C130  1  0.25460000  0.83230000  0.66320000  1
  C  C131  1  0.37540000  0.83850000  0.82410000  1
  C  C132  1  0.85640000  0.36771000  0.90810000  1
  C  C133  1  0.82020000  0.32530000  0.87030000  1
  C  C134  1  0.85670000  0.27440000  0.87270000  1
  C  C135  1  0.82870000  0.23190000  0.83600000  1
  C  C136  1  0.76570000  0.24490000  0.79710000  1
  C  C137  1  0.72730000  0.29750000  0.79450000  1
  C  C138  1  0.75460000  0.33680000  0.83230000  1
  C  C139  1  0.87540000  0.17590000  0.83850000  1
  C  C140  1  0.64360000  0.09190000  0.63229000  1
  C  C141  1  0.67980000  0.12970000  0.67470000  1
  C  C142  1  0.64330000  0.12730000  0.72560000  1
  C  C143  1  0.67130000  0.16400000  0.76810000  1
  C  C144  1  0.73430000  0.20290000  0.75510000  1
  C  C145  1  0.77270000  0.20550000  0.70250000  1
  C  C146  1  0.74540000  0.16770000  0.66320000  1
  C  C147  1  0.62460000  0.16150000  0.82410000  1
  C  C148  1  0.14360000  0.36771000  0.09190000  1
  C  C149  1  0.17980000  0.32530000  0.12970000  1
  C  C150  1  0.14330000  0.27440000  0.12730000  1
  C  C151  1  0.17130000  0.23190000  0.16400000  1
  C  C152  1  0.23430000  0.24490000  0.20290000  1
  C  C153  1  0.27270000  0.29750000  0.20550000  1
  C  C154  1  0.24540000  0.33680000  0.16770000  1
  C  C155  1  0.12460000  0.17590000  0.16150000  1
  C  C156  1  0.64360000  0.90810000  0.36771000  1
  C  C157  1  0.67980000  0.87030000  0.32530000  1
  C  C158  1  0.64330000  0.87270000  0.27440000  1
  C  C159  1  0.67130000  0.83600000  0.23190000  1
  C  C160  1  0.73430000  0.79710000  0.24490000  1
  C  C161  1  0.77270000  0.79450000  0.29750000  1
  C  C162  1  0.74540000  0.83230000  0.33680000  1
  C  C163  1  0.62460000  0.83850000  0.17590000  1
  C  C164  1  0.14360000  0.63229000  0.90810000  1
  C  C165  1  0.17980000  0.67470000  0.87030000  1
  C  C166  1  0.14330000  0.72560000  0.87270000  1
  C  C167  1  0.17130000  0.76810000  0.83600000  1
  C  C168  1  0.23430000  0.75510000  0.79710000  1
  C  C169  1  0.27270000  0.70250000  0.79450000  1
  C  C170  1  0.24540000  0.66320000  0.83230000  1
  C  C171  1  0.12460000  0.82410000  0.83850000  1
  C  C172  1  0.64360000  0.90810000  0.63229000  1
  C  C173  1  0.67980000  0.87030000  0.67470000  1
  C  C174  1  0.64330000  0.87270000  0.72560000  1
  C  C175  1  0.67130000  0.83600000  0.76810000  1
  C  C176  1  0.73430000  0.79710000  0.75510000  1
  C  C177  1  0.77270000  0.79450000  0.70250000  1
  C  C178  1  0.74540000  0.83230000  0.66320000  1
  C  C179  1  0.62460000  0.83850000  0.82410000  1
  C  C180  1  0.14360000  0.36771000  0.90810000  1
  C  C181  1  0.17980000  0.32530000  0.87030000  1
  C  C182  1  0.14330000  0.27440000  0.87270000  1
  C  C183  1  0.17130000  0.23190000  0.83600000  1
  C  C184  1  0.23430000  0.24490000  0.79710000  1
  C  C185  1  0.27270000  0.29750000  0.79450000  1
  C  C186  1  0.24540000  0.33680000  0.83230000  1
  C  C187  1  0.12460000  0.17590000  0.83850000  1
  C  C188  1  0.64360000  0.09190000  0.36771000  1
  C  C189  1  0.67980000  0.12970000  0.32530000  1
  C  C190  1  0.64330000  0.12730000  0.27440000  1
  C  C191  1  0.67130000  0.16400000  0.23190000  1
  C  C192  1  0.73430000  0.20290000  0.24490000  1
  C  C193  1  0.77270000  0.20550000  0.29750000  1
  C  C194  1  0.74540000  0.16770000  0.33680000  1
  C  C195  1  0.62460000  0.16150000  0.17590000  1
  C  C196  1  0.14360000  0.63229000  0.09190000  1
  C  C197  1  0.17980000  0.67470000  0.12970000  1
  C  C198  1  0.14330000  0.72560000  0.12730000  1
  C  C199  1  0.17130000  0.76810000  0.16400000  1
  C  C200  1  0.23430000  0.75510000  0.20290000  1
  C  C201  1  0.27270000  0.70250000  0.20550000  1
  C  C202  1  0.24540000  0.66320000  0.16770000  1
  C  C203  1  0.12460000  0.82410000  0.16150000  1
  C  C204  1  0.35640000  0.90810000  0.36771000  1
  C  C205  1  0.32020000  0.87030000  0.32530000  1
  C  C206  1  0.35670000  0.87270000  0.27440000  1
  C  C207  1  0.32870000  0.83600000  0.23190000  1
  C  C208  1  0.26570000  0.79710000  0.24490000  1
  C  C209  1  0.22730000  0.79450000  0.29750000  1
  C  C210  1  0.25460000  0.83230000  0.33680000  1
  C  C211  1  0.37540000  0.83850000  0.17590000  1
  C  C212  1  0.85640000  0.63229000  0.90810000  1
  C  C213  1  0.82020000  0.67470000  0.87030000  1
  C  C214  1  0.85670000  0.72560000  0.87270000  1
  C  C215  1  0.82870000  0.76810000  0.83600000  1
  C  C216  1  0.76570000  0.75510000  0.79710000  1
  C  C217  1  0.72730000  0.70250000  0.79450000  1
  C  C218  1  0.75460000  0.66320000  0.83230000  1
  C  C219  1  0.87540000  0.82410000  0.83850000  1
  C  C220  1  0.35640000  0.09190000  0.63229000  1
  C  C221  1  0.32020000  0.12970000  0.67470000  1
  C  C222  1  0.35670000  0.12730000  0.72560000  1
  C  C223  1  0.32870000  0.16400000  0.76810000  1
  C  C224  1  0.26570000  0.20290000  0.75510000  1
  C  C225  1  0.22730000  0.20550000  0.70250000  1
  C  C226  1  0.25460000  0.16770000  0.66320000  1
  C  C227  1  0.37540000  0.16150000  0.82410000  1
  C  C228  1  0.85640000  0.36771000  0.09190000  1
  C  C229  1  0.82020000  0.32530000  0.12970000  1
  C  C230  1  0.85670000  0.27440000  0.12730000  1
  C  C231  1  0.82870000  0.23190000  0.16400000  1
  C  C232  1  0.76570000  0.24490000  0.20290000  1
  C  C233  1  0.72730000  0.29750000  0.20550000  1
  C  C234  1  0.75460000  0.33680000  0.16770000  1
  C  C235  1  0.87540000  0.17590000  0.16150000  1
  O  O236  1  0.40940000  0.05452000  0.35335000  1
  O  O237  1  0.32850000  0.10122000  0.41721000  1
  O  O238  1  0.37810000  0.00000000  0.45125000  1
  O  O239  1  0.50000000  0.07340000  0.44980000  1
  O  O240  1  0.90940000  0.64665000  0.05452000  1
  O  O241  1  0.82850000  0.58279000  0.10122000  1
  O  O242  1  0.87810000  0.54875000  0.00000000  1
  O  O243  1  0.00000000  0.55020000  0.07340000  1
  O  O244  1  0.40940000  0.94548000  0.64665000  1
  O  O245  1  0.32850000  0.89878000  0.58279000  1
  O  O246  1  0.37810000  0.00000000  0.54875000  1
  O  O247  1  0.50000000  0.92660000  0.55020000  1
  O  O248  1  0.90940000  0.35335000  0.94548000  1
  O  O249  1  0.82850000  0.41721000  0.89878000  1
  O  O250  1  0.87810000  0.45125000  0.00000000  1
  O  O251  1  0.00000000  0.44980000  0.92660000  1
  O  O252  1  0.59060000  0.05452000  0.64665000  1
  O  O253  1  0.67150000  0.10122000  0.58279000  1
  O  O254  1  0.62190000  0.00000000  0.54875000  1
  O  O255  1  0.50000000  0.07340000  0.55020000  1
  O  O256  1  0.09060000  0.35335000  0.05452000  1
  O  O257  1  0.17150000  0.41721000  0.10122000  1
  O  O258  1  0.12190000  0.45125000  0.00000000  1
  O  O259  1  1.00000000  0.44980000  0.07340000  1
  O  O260  1  0.59060000  0.94548000  0.35335000  1
  O  O261  1  0.67150000  0.89878000  0.41721000  1
  O  O262  1  0.62190000  0.00000000  0.45125000  1
  O  O263  1  0.50000000  0.92660000  0.44980000  1
  O  O264  1  0.09060000  0.64665000  0.94548000  1
  O  O265  1  0.17150000  0.58279000  0.89878000  1
  O  O266  1  0.12190000  0.54875000  0.00000000  1
  O  O267  1  0.00000000  0.55020000  0.92660000  1
  O  O268  1  0.59060000  0.94548000  0.64665000  1
  O  O269  1  0.67150000  0.89878000  0.58279000  1
  O  O270  1  0.09060000  0.35335000  0.94548000  1
  O  O271  1  0.17150000  0.41721000  0.89878000  1
  O  O272  1  0.59060000  0.05452000  0.35335000  1
  O  O273  1  0.67150000  0.10122000  0.41721000  1
  O  O274  1  0.09060000  0.64665000  0.05452000  1
  O  O275  1  0.17150000  0.58279000  0.10122000  1
  O  O276  1  0.40940000  0.94548000  0.35335000  1
  O  O277  1  0.32850000  0.89878000  0.41721000  1
  O  O278  1  0.90940000  0.64665000  0.94548000  1
  O  O279  1  0.82850000  0.58279000  0.89878000  1
  O  O280  1  0.40940000  0.05452000  0.64665000  1
  O  O281  1  0.32850000  0.10122000  0.58279000  1
  O  O282  1  0.90940000  0.35335000  0.05452000  1
  O  O283  1  0.82850000  0.41721000  0.10122000  1
