# generated using pymatgen
data_Zr3H28(C8O3)4
_symmetry_space_group_name_H-M   'P 1'
_cell_length_a   14.91800000
_cell_length_b   24.34800000
_cell_length_c   24.34800000
_cell_angle_alpha   90.00000000
_cell_angle_beta   90.00000000
_cell_angle_gamma   90.00000000
_symmetry_Int_Tables_number   1
_chemical_formula_structural   Zr3H28(C8O3)4
_chemical_formula_sum   'Zr12 H112 C128 O48'
_cell_volume   8843.76490147
_cell_formula_units_Z   4
loop_
 _symmetry_equiv_pos_site_id
 _symmetry_equiv_pos_as_xyz
  1  'x, y, z'
loop_
 _atom_site_type_symbol
 _atom_site_label
 _atom_site_symmetry_multiplicity
 _atom_site_fract_x
 _atom_site_fract_y
 _atom_site_fract_z
 _atom_site_occupancy
  Zr  Zr0  1  0.50000000  1.00000000  0.60054000  1
  Zr  Zr1  1  0.61849000  0.92740000  0.50000000  1
  Zr  Zr2  1  0.00000000  0.39946000  0.00000000  1
  Zr  Zr3  1  0.11849000  0.50000000  0.92740000  1
  Zr  Zr4  1  0.50000000  1.00000000  0.39946000  1
  Zr  Zr5  1  0.61849000  0.07260000  0.50000000  1
  Zr  Zr6  1  0.00000000  0.60054000  0.00000000  1
  Zr  Zr7  1  0.11849000  0.50000000  0.07260000  1
  Zr  Zr8  1  0.38151000  0.92740000  0.50000000  1
  Zr  Zr9  1  0.88151000  0.50000000  0.92740000  1
  Zr  Zr10  1  0.38151000  0.07260000  0.50000000  1
  Zr  Zr11  1  0.88151000  0.50000000  0.07260000  1
  H  H12  1  0.59870000  0.89890000  0.26410000  1
  H  H13  1  0.81590000  0.76920000  0.30550000  1
  H  H14  1  0.76400000  0.82930000  0.37340000  1
  H  H15  1  0.57760000  0.86380000  0.17460000  1
  H  H16  1  0.59490000  0.79910000  0.16880000  1
  H  H17  1  0.66840000  0.84190000  0.14720000  1
  H  H18  1  0.69210000  0.00000000  0.56910000  1
  H  H19  1  0.50000000  0.11490000  0.57870000  1
  H  H20  1  0.09870000  0.73590000  0.89890000  1
  H  H21  1  0.31590000  0.69450000  0.76920000  1
  H  H22  1  0.26400000  0.62660000  0.82930000  1
  H  H23  1  0.07760000  0.82540000  0.86380000  1
  H  H24  1  0.09490000  0.83120000  0.79910000  1
  H  H25  1  0.16840000  0.85280000  0.84190000  1
  H  H26  1  0.19210000  0.43090000  0.00000000  1
  H  H27  1  0.00000000  0.42130000  0.11490000  1
  H  H28  1  0.59870000  0.10110000  0.73590000  1
  H  H29  1  0.81590000  0.23080000  0.69450000  1
  H  H30  1  0.76400000  0.17070000  0.62660000  1
  H  H31  1  0.57760000  0.13620000  0.82540000  1
  H  H32  1  0.59490000  0.20090000  0.83120000  1
  H  H33  1  0.66840000  0.15810000  0.85280000  1
  H  H34  1  0.69210000  0.00000000  0.43090000  1
  H  H35  1  0.50000000  0.88510000  0.42130000  1
  H  H36  1  0.09870000  0.26410000  0.10110000  1
  H  H37  1  0.31590000  0.30550000  0.23080000  1
  H  H38  1  0.26400000  0.37340000  0.17070000  1
  H  H39  1  0.07760000  0.17460000  0.13620000  1
  H  H40  1  0.09490000  0.16880000  0.20090000  1
  H  H41  1  0.16840000  0.14720000  0.15810000  1
  H  H42  1  0.19210000  0.56910000  0.00000000  1
  H  H43  1  0.00000000  0.57870000  0.88510000  1
  H  H44  1  0.40130000  0.89890000  0.73590000  1
  H  H45  1  0.18410000  0.76920000  0.69450000  1
  H  H46  1  0.23600000  0.82930000  0.62660000  1
  H  H47  1  0.42240000  0.86380000  0.82540000  1
  H  H48  1  0.40510000  0.79910000  0.83120000  1
  H  H49  1  0.33160000  0.84190000  0.85280000  1
  H  H50  1  0.30790000  0.00000000  0.43090000  1
  H  H51  1  0.50000000  0.11490000  0.42130000  1
  H  H52  1  0.90130000  0.26410000  0.89890000  1
  H  H53  1  0.68410000  0.30550000  0.76920000  1
  H  H54  1  0.73600000  0.37340000  0.82930000  1
  H  H55  1  0.92240000  0.17460000  0.86380000  1
  H  H56  1  0.90510000  0.16880000  0.79910000  1
  H  H57  1  0.83160000  0.14720000  0.84190000  1
  H  H58  1  0.80790000  0.56910000  0.00000000  1
  H  H59  1  0.00000000  0.57870000  0.11490000  1
  H  H60  1  0.40130000  0.10110000  0.26410000  1
  H  H61  1  0.18410000  0.23080000  0.30550000  1
  H  H62  1  0.23600000  0.17070000  0.37340000  1
  H  H63  1  0.42240000  0.13620000  0.17460000  1
  H  H64  1  0.40510000  0.20090000  0.16880000  1
  H  H65  1  0.33160000  0.15810000  0.14720000  1
  H  H66  1  0.30790000  0.00000000  0.56910000  1
  H  H67  1  0.50000000  0.88510000  0.57870000  1
  H  H68  1  0.90130000  0.73590000  0.10110000  1
  H  H69  1  0.68410000  0.69450000  0.23080000  1
  H  H70  1  0.73600000  0.62660000  0.17070000  1
  H  H71  1  0.92240000  0.82540000  0.13620000  1
  H  H72  1  0.90510000  0.83120000  0.20090000  1
  H  H73  1  0.83160000  0.85280000  0.15810000  1
  H  H74  1  0.80790000  0.43090000  0.00000000  1
  H  H75  1  0.00000000  0.42130000  0.88510000  1
  H  H76  1  0.40130000  0.10110000  0.73590000  1
  H  H77  1  0.18410000  0.23080000  0.69450000  1
  H  H78  1  0.23600000  0.17070000  0.62660000  1
  H  H79  1  0.42240000  0.13620000  0.82540000  1
  H  H80  1  0.40510000  0.20090000  0.83120000  1
  H  H81  1  0.33160000  0.15810000  0.85280000  1
  H  H82  1  0.90130000  0.26410000  0.10110000  1
  H  H83  1  0.68410000  0.30550000  0.23080000  1
  H  H84  1  0.73600000  0.37340000  0.17070000  1
  H  H85  1  0.92240000  0.17460000  0.13620000  1
  H  H86  1  0.90510000  0.16880000  0.20090000  1
  H  H87  1  0.83160000  0.14720000  0.15810000  1
  H  H88  1  0.40130000  0.89890000  0.26410000  1
  H  H89  1  0.18410000  0.76920000  0.30550000  1
  H  H90  1  0.23600000  0.82930000  0.37340000  1
  H  H91  1  0.42240000  0.86380000  0.17460000  1
  H  H92  1  0.40510000  0.79910000  0.16880000  1
  H  H93  1  0.33160000  0.84190000  0.14720000  1
  H  H94  1  0.90130000  0.73590000  0.89890000  1
  H  H95  1  0.68410000  0.69450000  0.76920000  1
  H  H96  1  0.73600000  0.62660000  0.82930000  1
  H  H97  1  0.92240000  0.82540000  0.86380000  1
  H  H98  1  0.90510000  0.83120000  0.79910000  1
  H  H99  1  0.83160000  0.85280000  0.84190000  1
  H  H100  1  0.59870000  0.10110000  0.26410000  1
  H  H101  1  0.81590000  0.23080000  0.30550000  1
  H  H102  1  0.76400000  0.17070000  0.37340000  1
  H  H103  1  0.57760000  0.13620000  0.17460000  1
  H  H104  1  0.59490000  0.20090000  0.16880000  1
  H  H105  1  0.66840000  0.15810000  0.14720000  1
  H  H106  1  0.09870000  0.73590000  0.10110000  1
  H  H107  1  0.31590000  0.69450000  0.23080000  1
  H  H108  1  0.26400000  0.62660000  0.17070000  1
  H  H109  1  0.07760000  0.82540000  0.13620000  1
  H  H110  1  0.09490000  0.83120000  0.20090000  1
  H  H111  1  0.16840000  0.85280000  0.15810000  1
  H  H112  1  0.59870000  0.89890000  0.73590000  1
  H  H113  1  0.81590000  0.76920000  0.69450000  1
  H  H114  1  0.76400000  0.82930000  0.62660000  1
  H  H115  1  0.57760000  0.86380000  0.82540000  1
  H  H116  1  0.59490000  0.79910000  0.83120000  1
  H  H117  1  0.66840000  0.84190000  0.85280000  1
  H  H118  1  0.09870000  0.26410000  0.89890000  1
  H  H119  1  0.31590000  0.30550000  0.76920000  1
  H  H120  1  0.26400000  0.37340000  0.82930000  1
  H  H121  1  0.07760000  0.17460000  0.86380000  1
  H  H122  1  0.09490000  0.16880000  0.79910000  1
  H  H123  1  0.16840000  0.14720000  0.84190000  1
  C  C124  1  0.64140000  0.90741000  0.36788000  1
  C  C125  1  0.67560000  0.86927000  0.32478000  1
  C  C126  1  0.64160000  0.87150000  0.27291000  1
  C  C127  1  0.66860000  0.83431000  0.23241000  1
  C  C128  1  0.73370000  0.79610000  0.24564000  1
  C  C129  1  0.77000000  0.79490000  0.29711000  1
  C  C130  1  0.74000000  0.83110000  0.33735000  1
  C  C131  1  0.62320000  0.83480000  0.17560000  1
  C  C132  1  0.14140000  0.63212000  0.90741000  1
  C  C133  1  0.17560000  0.67522000  0.86927000  1
  C  C134  1  0.14160000  0.72709000  0.87150000  1
  C  C135  1  0.16860000  0.76759000  0.83431000  1
  C  C136  1  0.23370000  0.75436000  0.79610000  1
  C  C137  1  0.27000000  0.70289000  0.79490000  1
  C  C138  1  0.24000000  0.66265000  0.83110000  1
  C  C139  1  0.12320000  0.82440000  0.83480000  1
  C  C140  1  0.64140000  0.09259000  0.63212000  1
  C  C141  1  0.67560000  0.13073000  0.67522000  1
  C  C142  1  0.64160000  0.12850000  0.72709000  1
  C  C143  1  0.66860000  0.16569000  0.76759000  1
  C  C144  1  0.73370000  0.20390000  0.75436000  1
  C  C145  1  0.77000000  0.20510000  0.70289000  1
  C  C146  1  0.74000000  0.16890000  0.66265000  1
  C  C147  1  0.62320000  0.16520000  0.82440000  1
  C  C148  1  0.14140000  0.36788000  0.09259000  1
  C  C149  1  0.17560000  0.32478000  0.13073000  1
  C  C150  1  0.14160000  0.27291000  0.12850000  1
  C  C151  1  0.16860000  0.23241000  0.16569000  1
  C  C152  1  0.23370000  0.24564000  0.20390000  1
  C  C153  1  0.27000000  0.29711000  0.20510000  1
  C  C154  1  0.24000000  0.33735000  0.16890000  1
  C  C155  1  0.12320000  0.17560000  0.16520000  1
  C  C156  1  0.35860000  0.90741000  0.63212000  1
  C  C157  1  0.32440000  0.86927000  0.67522000  1
  C  C158  1  0.35840000  0.87150000  0.72709000  1
  C  C159  1  0.33140000  0.83431000  0.76759000  1
  C  C160  1  0.26630000  0.79610000  0.75436000  1
  C  C161  1  0.23000000  0.79490000  0.70289000  1
  C  C162  1  0.26000000  0.83110000  0.66265000  1
  C  C163  1  0.37680000  0.83480000  0.82440000  1
  C  C164  1  0.85860000  0.36788000  0.90741000  1
  C  C165  1  0.82440000  0.32478000  0.86927000  1
  C  C166  1  0.85840000  0.27291000  0.87150000  1
  C  C167  1  0.83140000  0.23241000  0.83431000  1
  C  C168  1  0.76630000  0.24564000  0.79610000  1
  C  C169  1  0.73000000  0.29711000  0.79490000  1
  C  C170  1  0.76000000  0.33735000  0.83110000  1
  C  C171  1  0.87680000  0.17560000  0.83480000  1
  C  C172  1  0.35860000  0.09259000  0.36788000  1
  C  C173  1  0.32440000  0.13073000  0.32478000  1
  C  C174  1  0.35840000  0.12850000  0.27291000  1
  C  C175  1  0.33140000  0.16569000  0.23241000  1
  C  C176  1  0.26630000  0.20390000  0.24564000  1
  C  C177  1  0.23000000  0.20510000  0.29711000  1
  C  C178  1  0.26000000  0.16890000  0.33735000  1
  C  C179  1  0.37680000  0.16520000  0.17560000  1
  C  C180  1  0.85860000  0.63212000  0.09259000  1
  C  C181  1  0.82440000  0.67522000  0.13073000  1
  C  C182  1  0.85840000  0.72709000  0.12850000  1
  C  C183  1  0.83140000  0.76759000  0.16569000  1
  C  C184  1  0.76630000  0.75436000  0.20390000  1
  C  C185  1  0.73000000  0.70289000  0.20510000  1
  C  C186  1  0.76000000  0.66265000  0.16890000  1
  C  C187  1  0.87680000  0.82440000  0.16520000  1
  C  C188  1  0.35860000  0.09259000  0.63212000  1
  C  C189  1  0.32440000  0.13073000  0.67522000  1
  C  C190  1  0.35840000  0.12850000  0.72709000  1
  C  C191  1  0.33140000  0.16569000  0.76759000  1
  C  C192  1  0.26630000  0.20390000  0.75436000  1
  C  C193  1  0.23000000  0.20510000  0.70289000  1
  C  C194  1  0.26000000  0.16890000  0.66265000  1
  C  C195  1  0.37680000  0.16520000  0.82440000  1
  C  C196  1  0.85860000  0.36788000  0.09259000  1
  C  C197  1  0.82440000  0.32478000  0.13073000  1
  C  C198  1  0.85840000  0.27291000  0.12850000  1
  C  C199  1  0.83140000  0.23241000  0.16569000  1
  C  C200  1  0.76630000  0.24564000  0.20390000  1
  C  C201  1  0.73000000  0.29711000  0.20510000  1
  C  C202  1  0.76000000  0.33735000  0.16890000  1
  C  C203  1  0.87680000  0.17560000  0.16520000  1
  C  C204  1  0.35860000  0.90741000  0.36788000  1
  C  C205  1  0.32440000  0.86927000  0.32478000  1
  C  C206  1  0.35840000  0.87150000  0.27291000  1
  C  C207  1  0.33140000  0.83431000  0.23241000  1
  C  C208  1  0.26630000  0.79610000  0.24564000  1
  C  C209  1  0.23000000  0.79490000  0.29711000  1
  C  C210  1  0.26000000  0.83110000  0.33735000  1
  C  C211  1  0.37680000  0.83480000  0.17560000  1
  C  C212  1  0.85860000  0.63212000  0.90741000  1
  C  C213  1  0.82440000  0.67522000  0.86927000  1
  C  C214  1  0.85840000  0.72709000  0.87150000  1
  C  C215  1  0.83140000  0.76759000  0.83431000  1
  C  C216  1  0.76630000  0.75436000  0.79610000  1
  C  C217  1  0.73000000  0.70289000  0.79490000  1
  C  C218  1  0.76000000  0.66265000  0.83110000  1
  C  C219  1  0.87680000  0.82440000  0.83480000  1
  C  C220  1  0.64140000  0.09259000  0.36788000  1
  C  C221  1  0.67560000  0.13073000  0.32478000  1
  C  C222  1  0.64160000  0.12850000  0.27291000  1
  C  C223  1  0.66860000  0.16569000  0.23241000  1
  C  C224  1  0.73370000  0.20390000  0.24564000  1
  C  C225  1  0.77000000  0.20510000  0.29711000  1
  C  C226  1  0.74000000  0.16890000  0.33735000  1
  C  C227  1  0.62320000  0.16520000  0.17560000  1
  C  C228  1  0.14140000  0.63212000  0.09259000  1
  C  C229  1  0.17560000  0.67522000  0.13073000  1
  C  C230  1  0.14160000  0.72709000  0.12850000  1
  C  C231  1  0.16860000  0.76759000  0.16569000  1
  C  C232  1  0.23370000  0.75436000  0.20390000  1
  C  C233  1  0.27000000  0.70289000  0.20510000  1
  C  C234  1  0.24000000  0.66265000  0.16890000  1
  C  C235  1  0.12320000  0.82440000  0.16520000  1
  C  C236  1  0.64140000  0.90741000  0.63212000  1
  C  C237  1  0.67560000  0.86927000  0.67522000  1
  C  C238  1  0.64160000  0.87150000  0.72709000  1
  C  C239  1  0.66860000  0.83431000  0.76759000  1
  C  C240  1  0.73370000  0.79610000  0.75436000  1
  C  C241  1  0.77000000  0.79490000  0.70289000  1
  C  C242  1  0.74000000  0.83110000  0.66265000  1
  C  C243  1  0.62320000  0.83480000  0.82440000  1
  C  C244  1  0.14140000  0.36788000  0.90741000  1
  C  C245  1  0.17560000  0.32478000  0.86927000  1
  C  C246  1  0.14160000  0.27291000  0.87150000  1
  C  C247  1  0.16860000  0.23241000  0.83431000  1
  C  C248  1  0.23370000  0.24564000  0.79610000  1
  C  C249  1  0.27000000  0.29711000  0.79490000  1
  C  C250  1  0.24000000  0.33735000  0.83110000  1
  C  C251  1  0.12320000  0.17560000  0.83480000  1
  O  O252  1  0.58896000  0.94512000  0.35259000  1
  O  O253  1  0.66510000  0.89768000  0.41690000  1
  O  O254  1  0.63380000  0.00000000  0.55410000  1
  O  O255  1  0.50000000  0.08320000  0.55650000  1
  O  O256  1  0.08896000  0.64741000  0.94512000  1
  O  O257  1  0.16510000  0.58310000  0.89768000  1
  O  O258  1  0.13380000  0.44590000  0.00000000  1
  O  O259  1  0.00000000  0.44350000  0.08320000  1
  O  O260  1  0.58896000  0.05488000  0.64741000  1
  O  O261  1  0.66510000  0.10232000  0.58310000  1
  O  O262  1  0.63380000  0.00000000  0.44590000  1
  O  O263  1  0.50000000  0.91680000  0.44350000  1
  O  O264  1  0.08896000  0.35259000  0.05488000  1
  O  O265  1  0.16510000  0.41690000  0.10232000  1
  O  O266  1  0.13380000  0.55410000  0.00000000  1
  O  O267  1  0.00000000  0.55650000  0.91680000  1
  O  O268  1  0.41104000  0.94512000  0.64741000  1
  O  O269  1  0.33490000  0.89768000  0.58310000  1
  O  O270  1  0.36620000  0.00000000  0.44590000  1
  O  O271  1  0.50000000  0.08320000  0.44350000  1
  O  O272  1  0.91104000  0.35259000  0.94512000  1
  O  O273  1  0.83490000  0.41690000  0.89768000  1
  O  O274  1  0.86620000  0.55410000  0.00000000  1
  O  O275  1  0.00000000  0.55650000  0.08320000  1
  O  O276  1  0.41104000  0.05488000  0.35259000  1
  O  O277  1  0.33490000  0.10232000  0.41690000  1
  O  O278  1  0.36620000  0.00000000  0.55410000  1
  O  O279  1  0.50000000  0.91680000  0.55650000  1
  O  O280  1  0.91104000  0.64741000  0.05488000  1
  O  O281  1  0.83490000  0.58310000  0.10232000  1
  O  O282  1  0.86620000  0.44590000  0.00000000  1
  O  O283  1  0.00000000  0.44350000  0.91680000  1
  O  O284  1  0.41104000  0.05488000  0.64741000  1
  O  O285  1  0.33490000  0.10232000  0.58310000  1
  O  O286  1  0.91104000  0.35259000  0.05488000  1
  O  O287  1  0.83490000  0.41690000  0.10232000  1
  O  O288  1  0.41104000  0.94512000  0.35259000  1
  O  O289  1  0.33490000  0.89768000  0.41690000  1
  O  O290  1  0.91104000  0.64741000  0.94512000  1
  O  O291  1  0.83490000  0.58310000  0.89768000  1
  O  O292  1  0.58896000  0.05488000  0.35259000  1
  O  O293  1  0.66510000  0.10232000  0.41690000  1
  O  O294  1  0.08896000  0.64741000  0.05488000  1
  O  O295  1  0.16510000  0.58310000  0.10232000  1
  O  O296  1  0.58896000  0.94512000  0.64741000  1
  O  O297  1  0.66510000  0.89768000  0.58310000  1
  O  O298  1  0.08896000  0.35259000  0.94512000  1
  O  O299  1  0.16510000  0.41690000  0.89768000  1
