# generated using pymatgen
data_Zr3H28(C18O7)2
_symmetry_space_group_name_H-M   'P 1'
_cell_length_a   14.88000000
_cell_length_b   24.40000000
_cell_length_c   24.40100000
_cell_angle_alpha   90.00000000
_cell_angle_beta   90.00000000
_cell_angle_gamma   90.00000000
_symmetry_Int_Tables_number   1
_chemical_formula_structural   Zr3H28(C18O7)2
_chemical_formula_sum   'Zr12 H112 C144 O56'
_cell_volume   8859.31987200
_cell_formula_units_Z   4
loop_
 _symmetry_equiv_pos_site_id
 _symmetry_equiv_pos_as_xyz
  1  'x, y, z'
loop_
 _atom_site_type_symbol
 _atom_site_label
 _atom_site_symmetry_multiplicity
 _atom_site_fract_x
 _atom_site_fract_y
 _atom_site_fract_z
 _atom_site_occupancy
  Zr  Zr0  1  0.61938000  0.07167000  0.50000000  1
  Zr  Zr1  1  0.61938000  0.92833000  0.50000000  1
  Zr  Zr2  1  0.11938000  0.50000000  0.07167000  1
  Zr  Zr3  1  0.11938000  0.50000000  0.92833000  1
  Zr  Zr4  1  0.38062000  0.92833000  0.50000000  1
  Zr  Zr5  1  0.38062000  0.07167000  0.50000000  1
  Zr  Zr6  1  0.88062000  0.50000000  0.07167000  1
  Zr  Zr7  1  0.88062000  0.50000000  0.92833000  1
  Zr  Zr8  1  0.50000000  1.00000000  0.60101000  1
  Zr  Zr9  1  0.50000000  1.00000000  0.39899000  1
  Zr  Zr10  1  1.00000000  0.39899000  0.00000000  1
  Zr  Zr11  1  1.00000000  0.60101000  0.00000000  1
  H  H12  1  0.76640000  0.17120000  0.62460000  1
  H  H13  1  0.81230000  0.23530000  0.69010000  1
  H  H14  1  0.63850000  0.19800000  0.84200000  1
  H  H15  1  0.61900000  0.13380000  0.83590000  1
  H  H16  1  0.55080000  0.17750000  0.81010000  1
  H  H17  1  0.59500000  0.10410000  0.73480000  1
  H  H18  1  0.76640000  0.82880000  0.37540000  1
  H  H19  1  0.59500000  0.89590000  0.26520000  1
  H  H20  1  0.86090000  0.75780000  0.35560000  1
  H  H21  1  0.81680000  0.71660000  0.31420000  1
  H  H22  1  0.89270000  0.75650000  0.29430000  1
  H  H23  1  0.64330000  0.83420000  0.20050000  1
  H  H24  1  0.26640000  0.37540000  0.17120000  1
  H  H25  1  0.31230000  0.30990000  0.23530000  1
  H  H26  1  0.13850000  0.15800000  0.19800000  1
  H  H27  1  0.11900000  0.16410000  0.13380000  1
  H  H28  1  0.05080000  0.18990000  0.17750000  1
  H  H29  1  0.09500000  0.26520000  0.10410000  1
  H  H30  1  0.26640000  0.62460000  0.82880000  1
  H  H31  1  0.31230000  0.69010000  0.76470000  1
  H  H32  1  0.13850000  0.84200000  0.80200000  1
  H  H33  1  0.11900000  0.83590000  0.86620000  1
  H  H34  1  0.05080000  0.81010000  0.82250000  1
  H  H35  1  0.09500000  0.73480000  0.89590000  1
  H  H36  1  0.23360000  0.82880000  0.62460000  1
  H  H37  1  0.18770000  0.76470000  0.69010000  1
  H  H38  1  0.36150000  0.80200000  0.84200000  1
  H  H39  1  0.38100000  0.86620000  0.83590000  1
  H  H40  1  0.44920000  0.82250000  0.81010000  1
  H  H41  1  0.40500000  0.89590000  0.73480000  1
  H  H42  1  0.23360000  0.17120000  0.37540000  1
  H  H43  1  0.40500000  0.10410000  0.26520000  1
  H  H44  1  0.13910000  0.24220000  0.35560000  1
  H  H45  1  0.18320000  0.28340000  0.31420000  1
  H  H46  1  0.10730000  0.24350000  0.29430000  1
  H  H47  1  0.35670000  0.16580000  0.20050000  1
  H  H48  1  0.73360000  0.62460000  0.17120000  1
  H  H49  1  0.68770000  0.69010000  0.23530000  1
  H  H50  1  0.86150000  0.84200000  0.19800000  1
  H  H51  1  0.88100000  0.83590000  0.13380000  1
  H  H52  1  0.94920000  0.81010000  0.17750000  1
  H  H53  1  0.90500000  0.73480000  0.10410000  1
  H  H54  1  0.73360000  0.37540000  0.82880000  1
  H  H55  1  0.68770000  0.30990000  0.76470000  1
  H  H56  1  0.86150000  0.15800000  0.80200000  1
  H  H57  1  0.88100000  0.16410000  0.86620000  1
  H  H58  1  0.94920000  0.18990000  0.82250000  1
  H  H59  1  0.90500000  0.26520000  0.89590000  1
  H  H60  1  0.23360000  0.82880000  0.37540000  1
  H  H61  1  0.18770000  0.76470000  0.30990000  1
  H  H62  1  0.36150000  0.80200000  0.15800000  1
  H  H63  1  0.38100000  0.86620000  0.16410000  1
  H  H64  1  0.44920000  0.82250000  0.18990000  1
  H  H65  1  0.40500000  0.89590000  0.26520000  1
  H  H66  1  0.23360000  0.17120000  0.62460000  1
  H  H67  1  0.40500000  0.10410000  0.73480000  1
  H  H68  1  0.13910000  0.24220000  0.64440000  1
  H  H69  1  0.18320000  0.28340000  0.68580000  1
  H  H70  1  0.10730000  0.24350000  0.70570000  1
  H  H71  1  0.35670000  0.16580000  0.79950000  1
  H  H72  1  0.73360000  0.62460000  0.82880000  1
  H  H73  1  0.90500000  0.73480000  0.89590000  1
  H  H74  1  0.63910000  0.64440000  0.75780000  1
  H  H75  1  0.68320000  0.68580000  0.71660000  1
  H  H76  1  0.60730000  0.70570000  0.75650000  1
  H  H77  1  0.85670000  0.79950000  0.83420000  1
  H  H78  1  0.73360000  0.37540000  0.17120000  1
  H  H79  1  0.68770000  0.30990000  0.23530000  1
  H  H80  1  0.86150000  0.15800000  0.19800000  1
  H  H81  1  0.88100000  0.16410000  0.13380000  1
  H  H82  1  0.94920000  0.18990000  0.17750000  1
  H  H83  1  0.90500000  0.26520000  0.10410000  1
  H  H84  1  0.76640000  0.17120000  0.37540000  1
  H  H85  1  0.59500000  0.10410000  0.26520000  1
  H  H86  1  0.86090000  0.24220000  0.35560000  1
  H  H87  1  0.81680000  0.28340000  0.31420000  1
  H  H88  1  0.89270000  0.24350000  0.29430000  1
  H  H89  1  0.64330000  0.16580000  0.20050000  1
  H  H90  1  0.76640000  0.82880000  0.62460000  1
  H  H91  1  0.59500000  0.89590000  0.73480000  1
  H  H92  1  0.86090000  0.75780000  0.64440000  1
  H  H93  1  0.81680000  0.71660000  0.68580000  1
  H  H94  1  0.89270000  0.75650000  0.70570000  1
  H  H95  1  0.64330000  0.83420000  0.79950000  1
  H  H96  1  0.26640000  0.37540000  0.82880000  1
  H  H97  1  0.09500000  0.26520000  0.89590000  1
  H  H98  1  0.36090000  0.35560000  0.75780000  1
  H  H99  1  0.31680000  0.31420000  0.71660000  1
  H  H100  1  0.39270000  0.29430000  0.75650000  1
  H  H101  1  0.14330000  0.20050000  0.83420000  1
  H  H102  1  0.26640000  0.62460000  0.17120000  1
  H  H103  1  0.09500000  0.73480000  0.10410000  1
  H  H104  1  0.36090000  0.64440000  0.24220000  1
  H  H105  1  0.31680000  0.68580000  0.28340000  1
  H  H106  1  0.39270000  0.70570000  0.24350000  1
  H  H107  1  0.14330000  0.79950000  0.16580000  1
  H  H108  1  0.92110000  0.08310000  0.50000000  1
  H  H109  1  0.92110000  0.91690000  0.50000000  1
  H  H110  1  0.42110000  0.50000000  0.08310000  1
  H  H111  1  0.42110000  0.50000000  0.91690000  1
  H  H112  1  0.07890000  0.91690000  0.50000000  1
  H  H113  1  0.07890000  0.08310000  0.50000000  1
  H  H114  1  0.57890000  0.50000000  0.08310000  1
  H  H115  1  0.57890000  0.50000000  0.91690000  1
  H  H116  1  0.50000000  0.11290000  0.57920000  1
  H  H117  1  0.50000000  0.88710000  0.42080000  1
  H  H118  1  0.00000000  0.42080000  0.11290000  1
  H  H119  1  0.00000000  0.57920000  0.88710000  1
  H  H120  1  0.50000000  0.88710000  0.57920000  1
  H  H121  1  0.50000000  0.11290000  0.42080000  1
  H  H122  1  1.00000000  0.57920000  0.11290000  1
  H  H123  1  1.00000000  0.42080000  0.88710000  1
  C  C124  1  0.64200000  0.09190000  0.63140000  1
  C  C125  1  0.67640000  0.13166000  0.67358000  1
  C  C126  1  0.74100000  0.17060000  0.66031000  1
  C  C127  1  0.76840000  0.20860000  0.69934000  1
  C  C128  1  0.66650000  0.16870000  0.76483000  1
  C  C129  1  0.61410000  0.16960000  0.81790000  1
  C  C130  1  0.73120000  0.20763000  0.75157000  1
  C  C131  1  0.63910000  0.13068000  0.72581000  1
  C  C132  1  0.23160000  0.20860000  0.69934000  1
  C  C133  1  0.64200000  0.90810000  0.36860000  1
  C  C134  1  0.67640000  0.86834000  0.32642000  1
  C  C135  1  0.74100000  0.82940000  0.33969000  1
  C  C136  1  0.76840000  0.79140000  0.30066000  1
  C  C137  1  0.66650000  0.83130000  0.23517000  1
  C  C138  1  0.73120000  0.79237000  0.24843000  1
  C  C139  1  0.63910000  0.86932000  0.27419000  1
  C  C140  1  0.84200000  0.75260000  0.31830000  1
  C  C141  1  0.23160000  0.79140000  0.30066000  1
  C  C142  1  0.14200000  0.36860000  0.09190000  1
  C  C143  1  0.17640000  0.32642000  0.13166000  1
  C  C144  1  0.24100000  0.33969000  0.17060000  1
  C  C145  1  0.26840000  0.30066000  0.20860000  1
  C  C146  1  0.16650000  0.23517000  0.16870000  1
  C  C147  1  0.11410000  0.18210000  0.16960000  1
  C  C148  1  0.23120000  0.24843000  0.20763000  1
  C  C149  1  0.13910000  0.27419000  0.13068000  1
  C  C150  1  0.73160000  0.30066000  0.20860000  1
  C  C151  1  0.14200000  0.63140000  0.90810000  1
  C  C152  1  0.17640000  0.67358000  0.86834000  1
  C  C153  1  0.24100000  0.66031000  0.82940000  1
  C  C154  1  0.26840000  0.69934000  0.79140000  1
  C  C155  1  0.16650000  0.76483000  0.83130000  1
  C  C156  1  0.11410000  0.81790000  0.83040000  1
  C  C157  1  0.23120000  0.75157000  0.79237000  1
  C  C158  1  0.13910000  0.72581000  0.86932000  1
  C  C159  1  0.73160000  0.69934000  0.79140000  1
  C  C160  1  0.35800000  0.90810000  0.63140000  1
  C  C161  1  0.32360000  0.86834000  0.67358000  1
  C  C162  1  0.25900000  0.82940000  0.66031000  1
  C  C163  1  0.23160000  0.79140000  0.69934000  1
  C  C164  1  0.33350000  0.83130000  0.76483000  1
  C  C165  1  0.38590000  0.83040000  0.81790000  1
  C  C166  1  0.26880000  0.79237000  0.75157000  1
  C  C167  1  0.36090000  0.86932000  0.72581000  1
  C  C168  1  0.76840000  0.79140000  0.69934000  1
  C  C169  1  0.35800000  0.09190000  0.36860000  1
  C  C170  1  0.32360000  0.13166000  0.32642000  1
  C  C171  1  0.25900000  0.17060000  0.33969000  1
  C  C172  1  0.23160000  0.20860000  0.30066000  1
  C  C173  1  0.33350000  0.16870000  0.23517000  1
  C  C174  1  0.26880000  0.20763000  0.24843000  1
  C  C175  1  0.36090000  0.13068000  0.27419000  1
  C  C176  1  0.15800000  0.24740000  0.31830000  1
  C  C177  1  0.76840000  0.20860000  0.30066000  1
  C  C178  1  0.85800000  0.63140000  0.09190000  1
  C  C179  1  0.82360000  0.67358000  0.13166000  1
  C  C180  1  0.75900000  0.66031000  0.17060000  1
  C  C181  1  0.73160000  0.69934000  0.20860000  1
  C  C182  1  0.83350000  0.76483000  0.16870000  1
  C  C183  1  0.88590000  0.81790000  0.16960000  1
  C  C184  1  0.76880000  0.75157000  0.20763000  1
  C  C185  1  0.86090000  0.72581000  0.13068000  1
  C  C186  1  0.26840000  0.69934000  0.20860000  1
  C  C187  1  0.85800000  0.36860000  0.90810000  1
  C  C188  1  0.82360000  0.32642000  0.86834000  1
  C  C189  1  0.75900000  0.33969000  0.82940000  1
  C  C190  1  0.73160000  0.30066000  0.79140000  1
  C  C191  1  0.83350000  0.23517000  0.83130000  1
  C  C192  1  0.88590000  0.18210000  0.83040000  1
  C  C193  1  0.76880000  0.24843000  0.79237000  1
  C  C194  1  0.86090000  0.27419000  0.86932000  1
  C  C195  1  0.26840000  0.30066000  0.79140000  1
  C  C196  1  0.35800000  0.90810000  0.36860000  1
  C  C197  1  0.32360000  0.86834000  0.32642000  1
  C  C198  1  0.25900000  0.82940000  0.33969000  1
  C  C199  1  0.33350000  0.83130000  0.23517000  1
  C  C200  1  0.38590000  0.83040000  0.18210000  1
  C  C201  1  0.26880000  0.79237000  0.24843000  1
  C  C202  1  0.36090000  0.86932000  0.27419000  1
  C  C203  1  0.35800000  0.09190000  0.63140000  1
  C  C204  1  0.32360000  0.13166000  0.67358000  1
  C  C205  1  0.25900000  0.17060000  0.66031000  1
  C  C206  1  0.33350000  0.16870000  0.76483000  1
  C  C207  1  0.26880000  0.20763000  0.75157000  1
  C  C208  1  0.36090000  0.13068000  0.72581000  1
  C  C209  1  0.15800000  0.24740000  0.68170000  1
  C  C210  1  0.85800000  0.63140000  0.90810000  1
  C  C211  1  0.82360000  0.67358000  0.86834000  1
  C  C212  1  0.75900000  0.66031000  0.82940000  1
  C  C213  1  0.83350000  0.76483000  0.83130000  1
  C  C214  1  0.76880000  0.75157000  0.79237000  1
  C  C215  1  0.86090000  0.72581000  0.86932000  1
  C  C216  1  0.65800000  0.68170000  0.75260000  1
  C  C217  1  0.85800000  0.36860000  0.09190000  1
  C  C218  1  0.82360000  0.32642000  0.13166000  1
  C  C219  1  0.75900000  0.33969000  0.17060000  1
  C  C220  1  0.83350000  0.23517000  0.16870000  1
  C  C221  1  0.88590000  0.18210000  0.16960000  1
  C  C222  1  0.76880000  0.24843000  0.20763000  1
  C  C223  1  0.86090000  0.27419000  0.13068000  1
  C  C224  1  0.64200000  0.09190000  0.36860000  1
  C  C225  1  0.67640000  0.13166000  0.32642000  1
  C  C226  1  0.74100000  0.17060000  0.33969000  1
  C  C227  1  0.66650000  0.16870000  0.23517000  1
  C  C228  1  0.73120000  0.20763000  0.24843000  1
  C  C229  1  0.63910000  0.13068000  0.27419000  1
  C  C230  1  0.84200000  0.24740000  0.31830000  1
  C  C231  1  0.64200000  0.90810000  0.63140000  1
  C  C232  1  0.67640000  0.86834000  0.67358000  1
  C  C233  1  0.74100000  0.82940000  0.66031000  1
  C  C234  1  0.66650000  0.83130000  0.76483000  1
  C  C235  1  0.73120000  0.79237000  0.75157000  1
  C  C236  1  0.63910000  0.86932000  0.72581000  1
  C  C237  1  0.84200000  0.75260000  0.68170000  1
  C  C238  1  0.14200000  0.36860000  0.90810000  1
  C  C239  1  0.17640000  0.32642000  0.86834000  1
  C  C240  1  0.24100000  0.33969000  0.82940000  1
  C  C241  1  0.16650000  0.23517000  0.83130000  1
  C  C242  1  0.23120000  0.24843000  0.79237000  1
  C  C243  1  0.13910000  0.27419000  0.86932000  1
  C  C244  1  0.34200000  0.31830000  0.75260000  1
  C  C245  1  0.14200000  0.63140000  0.09190000  1
  C  C246  1  0.17640000  0.67358000  0.13166000  1
  C  C247  1  0.24100000  0.66031000  0.17060000  1
  C  C248  1  0.16650000  0.76483000  0.16870000  1
  C  C249  1  0.23120000  0.75157000  0.20763000  1
  C  C250  1  0.13910000  0.72581000  0.13068000  1
  C  C251  1  0.34200000  0.68170000  0.24740000  1
  C  C252  1  0.95300000  0.04934000  0.50000000  1
  C  C253  1  0.95300000  0.95066000  0.50000000  1
  C  C254  1  0.45300000  0.50000000  0.04934000  1
  C  C255  1  0.45300000  0.50000000  0.95066000  1
  C  C256  1  0.04700000  0.95066000  0.50000000  1
  C  C257  1  0.04700000  0.04934000  0.50000000  1
  C  C258  1  0.54700000  0.50000000  0.04934000  1
  C  C259  1  0.54700000  0.50000000  0.95066000  1
  C  C260  1  0.80510000  0.00000000  0.50000000  1
  C  C261  1  0.90640000  0.00000000  0.50000000  1
  C  C262  1  0.30510000  0.50000000  0.00000000  1
  C  C263  1  0.40640000  0.50000000  0.00000000  1
  C  C264  1  0.19490000  0.00000000  0.50000000  1
  C  C265  1  0.09360000  0.00000000  0.50000000  1
  C  C266  1  0.69490000  0.50000000  0.00000000  1
  C  C267  1  0.59360000  0.50000000  0.00000000  1
  O  O268  1  0.58930000  0.05480000  0.64725000  1
  O  O269  1  0.66850000  0.10084000  0.58208000  1
  O  O270  1  0.58930000  0.94520000  0.35275000  1
  O  O271  1  0.66850000  0.89916000  0.41792000  1
  O  O272  1  0.08930000  0.35275000  0.05480000  1
  O  O273  1  0.16850000  0.41792000  0.10084000  1
  O  O274  1  0.08930000  0.64725000  0.94520000  1
  O  O275  1  0.16850000  0.58208000  0.89916000  1
  O  O276  1  0.41070000  0.94520000  0.64725000  1
  O  O277  1  0.33150000  0.89916000  0.58208000  1
  O  O278  1  0.41070000  0.05480000  0.35275000  1
  O  O279  1  0.33150000  0.10084000  0.41792000  1
  O  O280  1  0.91070000  0.64725000  0.05480000  1
  O  O281  1  0.83150000  0.58208000  0.10084000  1
  O  O282  1  0.91070000  0.35275000  0.94520000  1
  O  O283  1  0.83150000  0.41792000  0.89916000  1
  O  O284  1  0.41070000  0.94520000  0.35275000  1
  O  O285  1  0.33150000  0.89916000  0.41792000  1
  O  O286  1  0.41070000  0.05480000  0.64725000  1
  O  O287  1  0.33150000  0.10084000  0.58208000  1
  O  O288  1  0.91070000  0.64725000  0.94520000  1
  O  O289  1  0.83150000  0.58208000  0.89916000  1
  O  O290  1  0.91070000  0.35275000  0.05480000  1
  O  O291  1  0.83150000  0.41792000  0.10084000  1
  O  O292  1  0.58930000  0.05480000  0.35275000  1
  O  O293  1  0.66850000  0.10084000  0.41792000  1
  O  O294  1  0.58930000  0.94520000  0.64725000  1
  O  O295  1  0.66850000  0.89916000  0.58208000  1
  O  O296  1  0.08930000  0.35275000  0.94520000  1
  O  O297  1  0.16850000  0.41792000  0.89916000  1
  O  O298  1  0.08930000  0.64725000  0.05480000  1
  O  O299  1  0.16850000  0.58208000  0.10084000  1
  O  O300  1  0.76480000  0.05430000  0.50000000  1
  O  O301  1  0.76480000  0.94570000  0.50000000  1
  O  O302  1  0.26480000  0.50000000  0.05430000  1
  O  O303  1  0.26480000  0.50000000  0.94570000  1
  O  O304  1  0.23520000  0.94570000  0.50000000  1
  O  O305  1  0.23520000  0.05430000  0.50000000  1
  O  O306  1  0.73520000  0.50000000  0.05430000  1
  O  O307  1  0.73520000  0.50000000  0.94570000  1
  O  O308  1  0.63340000  0.00000000  0.55580000  1
  O  O309  1  0.63340000  1.00000000  0.44420000  1
  O  O310  1  0.13340000  0.44420000  0.00000000  1
  O  O311  1  0.13340000  0.55580000  0.00000000  1
  O  O312  1  0.36660000  0.00000000  0.55580000  1
  O  O313  1  0.36660000  1.00000000  0.44420000  1
  O  O314  1  0.86660000  0.55580000  0.00000000  1
  O  O315  1  0.86660000  0.44420000  0.00000000  1
  O  O316  1  0.50000000  0.08160000  0.55650000  1
  O  O317  1  0.50000000  0.91840000  0.44350000  1
  O  O318  1  0.00000000  0.44350000  0.08160000  1
  O  O319  1  0.00000000  0.55650000  0.91840000  1
  O  O320  1  0.50000000  0.91840000  0.55650000  1
  O  O321  1  0.50000000  0.08160000  0.44350000  1
  O  O322  1  1.00000000  0.55650000  0.08160000  1
  O  O323  1  0.00000000  0.44350000  0.91840000  1
