# generated using pymatgen
data_Zr3H36(C27O8)2
_symmetry_space_group_name_H-M   'P 1'
_cell_length_a   23.23514341
_cell_length_b   23.23514341
_cell_length_c   23.23514341
_cell_angle_alpha   90.01902157
_cell_angle_beta   119.98901850
_cell_angle_gamma   119.98901850
_symmetry_Int_Tables_number   1
_chemical_formula_structural   Zr3H36(C27O8)2
_chemical_formula_sum   'Zr6 H72 C108 O32'
_cell_volume   8871.41976467
_cell_formula_units_Z   2
loop_
 _symmetry_equiv_pos_site_id
 _symmetry_equiv_pos_as_xyz
  1  'x, y, z'
loop_
 _atom_site_type_symbol
 _atom_site_label
 _atom_site_symmetry_multiplicity
 _atom_site_fract_x
 _atom_site_fract_y
 _atom_site_fract_z
 _atom_site_occupancy
  C  C0  1  0.48100000  0.40870000  0.41970000  1
  C  C1  1  0.54600000  0.41790000  0.42190000  1
  C  C2  1  0.62520000  0.46570000  0.48090000  1
  C  C3  1  0.63920000  0.50420000  0.53780000  1
  C  C4  1  0.57430000  0.49500000  0.53570000  1
  C  C5  1  0.49510000  0.44720000  0.47670000  1
  C  C6  1  0.45330000  0.51290000  0.51420000  1
  C  C7  1  0.39620000  0.52120000  0.51000000  1
  C  C8  1  0.31430000  0.46550000  0.46860000  1
  C  C9  1  0.28930000  0.40150000  0.43140000  1
  C  C10  1  0.34640000  0.39320000  0.43560000  1
  C  C11  1  0.42830000  0.44880000  0.47690000  1
  C  C12  1  0.67640000  0.46070000  0.46390000  1
  C  C13  1  0.75750000  0.50930000  0.51700000  1
  C  C14  1  0.24320000  0.45260000  0.46720000  1
  C  C15  1  0.26610000  0.50950000  0.51960000  1
  C  C16  1  0.18690000  0.49020000  0.51230000  1
  C  C17  1  0.81780000  0.49620000  0.51380000  1
  C  C18  1  0.37170000  0.85930000  0.47480000  1
  C  C19  1  0.38450000  0.84410000  0.53620000  1
  C  C20  1  0.32280000  0.78380000  0.54700000  1
  C  C21  1  0.25040000  0.75180000  0.49260000  1
  C  C22  1  0.18890000  0.68890000  0.49980000  1
  C  C23  1  0.51900000  0.93870000  0.92770000  1
  C  C24  1  0.45400000  0.87590000  0.87190000  1
  C  C25  1  0.37480000  0.85570000  0.84050000  1
  C  C26  1  0.36080000  0.89860000  0.86500000  1
  C  C27  1  0.42570000  0.96140000  0.92070000  1
  C  C28  1  0.50490000  0.98160000  0.95210000  1
  C  C29  1  0.54670000  0.06090000  0.05960000  1
  C  C30  1  0.60380000  0.11380000  0.12500000  1
  C  C31  1  0.68570000  0.15430000  0.15120000  1
  C  C32  1  0.71070000  0.14210000  0.11220000  1
  C  C33  1  0.65360000  0.08920000  0.04680000  1
  C  C34  1  0.57170000  0.04860000  0.02050000  1
  C  C35  1  0.32360000  0.78750000  0.78430000  1
  C  C36  1  0.24250000  0.75950000  0.75180000  1
  C  C37  1  0.75680000  0.22400000  0.20940000  1
  C  C38  1  0.73390000  0.25350000  0.24340000  1
  C  C39  1  0.81310000  0.32540000  0.30330000  1
  C  C40  1  0.18220000  0.69600000  0.67840000  1
  C  C41  1  0.45810000  0.89080000  0.60090000  1
  C  C42  1  0.51880000  0.95260000  0.60400000  1
  C  C43  1  0.43240000  0.92120000  0.47800000  1
  C  C44  1  0.50600000  0.96780000  0.54260000  1
  C  C45  1  0.55310000  0.07630000  0.50140000  1
  C  C46  1  0.61240000  0.13040000  0.49600000  1
  C  C47  1  0.69170000  0.14940000  0.53730000  1
  C  C48  1  0.71180000  0.11430000  0.58390000  1
  C  C49  1  0.65260000  0.06020000  0.58920000  1
  C  C50  1  0.57330000  0.04120000  0.54810000  1
  C  C51  1  0.74960000  0.24220000  0.50140000  1
  C  C52  1  0.76000000  0.21910000  0.55090000  1
  C  C53  1  0.81110000  0.31090000  0.50000000  1
  C  C54  1  0.01100000  0.07230000  0.59130000  1
  C  C55  1  0.00400000  0.12810000  0.58210000  1
  C  C56  1  0.01520000  0.15950000  0.53430000  1
  C  C57  1  0.03360000  0.13500000  0.49580000  1
  C  C58  1  0.04070000  0.07930000  0.50500000  1
  C  C59  1  0.02950000  0.04790000  0.55280000  1
  C  C60  1  0.00130000  0.94040000  0.48710000  1
  C  C61  1  0.98880000  0.87500000  0.47880000  1
  C  C62  1  0.00310000  0.84880000  0.53450000  1
  C  C63  1  0.02990000  0.88780000  0.59850000  1
  C  C64  1  0.04240000  0.95320000  0.60680000  1
  C  C65  1  0.02810000  0.97950000  0.55120000  1
  C  C66  1  0.00320000  0.21570000  0.53930000  1
  C  C67  1  0.00770000  0.24820000  0.49070000  1
  C  C68  1  0.01460000  0.79060000  0.54740000  1
  C  C69  1  0.01010000  0.75660000  0.49050000  1
  C  C70  1  0.02210000  0.69670000  0.50980000  1
  C  C71  1  0.01760000  0.32160000  0.50380000  1
  C  C72  1  0.28990000  0.39910000  0.85720000  1
  C  C73  1  0.34860000  0.39600000  0.91480000  1
  C  C74  1  0.44320000  0.52200000  0.95440000  1
  C  C75  1  0.42520000  0.45740000  0.96340000  1
  C  C76  1  0.57490000  0.49860000  0.05170000  1
  C  C77  1  0.63440000  0.50400000  0.11640000  1
  C  C78  1  0.61210000  0.46270000  0.15440000  1
  C  C79  1  0.53040000  0.41610000  0.12790000  1
  C  C80  1  0.47100000  0.41080000  0.06340000  1
  C  C81  1  0.49310000  0.45190000  0.02520000  1
  C  C82  1  0.74080000  0.49860000  0.24820000  1
  C  C83  1  0.66820000  0.44910000  0.20910000  1
  C  C84  1  0.81090000  0.50000000  0.31110000  1
  C  C85  1  0.98900000  0.58030000  0.06130000  1
  C  C86  1  0.99600000  0.57810000  0.12410000  1
  C  C87  1  0.98480000  0.51910000  0.14430000  1
  C  C88  1  0.96640000  0.46220000  0.10140000  1
  C  C89  1  0.95930000  0.46430000  0.03860000  1
  C  C90  1  0.97050000  0.52330000  0.01840000  1
  C  C91  1  0.99870000  0.48580000  0.93910000  1
  C  C92  1  0.01120000  0.49000000  0.88620000  1
  C  C93  1  0.99690000  0.53140000  0.84570000  1
  C  C94  1  0.97010000  0.56860000  0.85790000  1
  C  C95  1  0.95760000  0.56440000  0.91080000  1
  C  C96  1  0.97190000  0.52310000  0.95140000  1
  C  C97  1  0.99680000  0.53610000  0.21250000  1
  C  C98  1  0.99230000  0.48300000  0.24050000  1
  C  C99  1  0.98540000  0.53280000  0.77600000  1
  C  C100  1  0.98990000  0.48040000  0.74650000  1
  C  C101  1  0.97790000  0.48770000  0.67460000  1
  C  C102  1  0.98240000  0.48620000  0.30400000  1
  C  C103  1  0.38450000  0.52520000  0.89690000  1
  C  C104  1  0.30790000  0.46380000  0.84830000  1
  C  C105  1  0.23680000  0.45300000  0.77580000  1
  C  C106  1  0.25920000  0.50740000  0.75780000  1
  C  C107  1  0.18910000  0.50020000  0.68910000  1
  H  H108  1  0.99565000  0.44181000  0.21842000  1
  H  H109  1  0.00778000  0.58732000  0.23400000  1
  H  H110  1  0.00055000  0.44371000  0.77600000  1
  H  H111  1  0.97454000  0.57199000  0.75167000  1
  H  H112  1  0.94427000  0.41762000  0.00351000  1
  H  H113  1  0.95712000  0.41372000  0.11778000  1
  H  H114  1  0.03317000  0.45948000  0.87611000  1
  H  H115  1  0.01040000  0.45183000  0.97237000  1
  H  H116  1  0.01095000  0.62473000  0.15920000  1
  H  H117  1  0.99842000  0.62881000  0.04495000  1
  H  H118  1  0.93559000  0.59489000  0.92086000  1
  H  H119  1  0.95838000  0.60252000  0.82456000  1
  H  H120  1  0.00435000  0.22277000  0.44616000  1
  H  H121  1  0.99222000  0.22622000  0.57954000  1
  H  H122  1  0.99945000  0.77545000  0.44316000  1
  H  H123  1  0.02546000  0.77713000  0.59745000  1
  H  H124  1  0.05573000  0.05924000  0.47335000  1
  H  H125  1  0.04288000  0.16066000  0.45660000  1
  H  H126  1  0.96683000  0.84294000  0.42631000  1
  H  H127  1  0.98960000  0.96197000  0.44143000  1
  H  H128  1  0.98905000  0.14825000  0.61378000  1
  H  H129  1  0.00158000  0.04653000  0.63039000  1
  H  H130  1  0.06441000  0.98527000  0.65930000  1
  H  H131  1  0.04162000  0.86618000  0.64414000  1
  H  H132  1  0.77689000  0.12992000  0.61777000  1
  H  H133  1  0.66905000  0.03131000  0.62732000  1
  H  H134  1  0.77661000  0.55384000  0.55819000  1
  H  H135  1  0.64668000  0.42046000  0.41268000  1
  H  H136  1  0.33229000  0.55684000  0.55629000  1
  H  H137  1  0.17968000  0.40255000  0.42801000  1
  H  H138  1  0.58589000  0.52665000  0.58238000  1
  H  H139  1  0.70406000  0.54340000  0.58628000  1
  H  H140  1  0.41663000  0.57369000  0.54052000  1
  H  H141  1  0.52054000  0.55857000  0.54817000  1
  H  H142  1  0.53447000  0.38622000  0.37527000  1
  H  H143  1  0.41614000  0.36961000  0.37119000  1
  H  H144  1  0.32597000  0.34070000  0.40511000  1
  H  H145  1  0.22204000  0.35586000  0.39748000  1
  H  H146  1  0.51215000  0.38223000  0.15912000  1
  H  H147  1  0.40399000  0.37268000  0.04173000  1
  H  H148  1  0.22339000  0.78158000  0.77723000  1
  H  H149  1  0.35332000  0.76600000  0.77378000  1
  H  H150  1  0.66771000  0.22400000  0.22455000  1
  H  H151  1  0.82032000  0.24833000  0.22287000  1
  H  H152  1  0.41411000  0.99649000  0.94076000  1
  H  H153  1  0.29594000  0.88222000  0.83934000  1
  H  H154  1  0.58337000  0.12389000  0.15706000  1
  H  H155  1  0.47946000  0.02763000  0.03803000  1
  H  H156  1  0.46553000  0.84080000  0.85175000  1
  H  H157  1  0.58386000  0.95505000  0.95347000  1
  H  H158  1  0.67403000  0.07914000  0.01473000  1
  H  H159  1  0.77796000  0.17544000  0.13382000  1
  H  H160  1  0.17413000  0.40069000  0.74616000  1
  H  H161  1  0.23691000  0.77077000  0.44518000  1
  H  H162  1  0.34547000  0.77344000  0.59931000  1
  H  H163  1  0.64666000  0.39518000  0.21602000  1
  H  H164  1  0.76289000  0.55173000  0.23946000  1
  H  H165  1  0.82084000  0.25148000  0.60482000  1
  H  H166  1  0.68773000  0.21116000  0.44827000  1
  H  H167  1  0.32559000  0.55482000  0.79173000  1
  H  H168  1  0.31141000  0.82099000  0.42180000  1
  H  H169  1  0.46863000  0.87841000  0.65132000  1
  H  H170  1  0.57917000  0.99089000  0.65696000  1
  H  H171  1  0.42183000  0.93376000  0.42763000  1
  H  H172  1  0.48805000  0.06077000  0.46760000  1
  H  H173  1  0.59591000  0.15912000  0.45769000  1
  H  H174  1  0.22709000  0.34868000  0.81731000  1
  H  H175  1  0.33393000  0.34304000  0.92221000  1
  H  H176  1  0.50613000  0.57237000  0.99420000  1
  H  H177  1  0.59317000  0.53240000  0.02045000  1
  H  H178  1  0.70143000  0.54231000  0.13822000  1
  H  H179  1  0.39919000  0.57820000  0.88961000  1
  O  O180  1  0.92520000  0.46100000  0.39420000  1
  O  O181  1  0.91810000  0.38140000  0.45630000  1
  O  O182  1  0.77720000  0.44570000  0.43710000  1
  O  O183  1  0.21200000  0.54620000  0.53880000  1
  O  O184  1  0.12430000  0.45980000  0.45150000  1
  O  O185  1  0.89130000  0.56270000  0.55120000  1
  O  O186  1  0.21900000  0.66080000  0.54460000  1
  O  O187  1  0.11600000  0.65880000  0.44300000  1
  O  O188  1  0.07480000  0.46900000  0.53580000  1
  O  O189  1  0.08190000  0.53820000  0.46330000  1
  O  O190  1  0.22280000  0.65990000  0.66850000  1
  O  O191  1  0.78800000  0.32680000  0.33420000  1
  O  O192  1  0.87570000  0.32720000  0.33550000  1
  O  O193  1  0.10870000  0.65990000  0.67140000  1
  O  O194  1  0.78100000  0.32560000  0.44180000  1
  O  O195  1  0.88400000  0.32700000  0.54280000  1
  O  O196  1  0.93320000  0.46420000  0.53900000  1
  O  O197  1  0.07490000  0.53670000  0.61860000  1
  O  O198  1  0.99140000  0.33150000  0.55430000  1
  O  O199  1  0.99260000  0.66580000  0.45380000  1
  O  O200  1  0.99170000  0.66450000  0.54020000  1
  O  O201  1  0.98850000  0.32860000  0.43730000  1
  O  O202  1  0.88380000  0.55820000  0.33920000  1
  O  O203  1  0.78420000  0.45720000  0.34120000  1
  O  O204  1  0.06680000  0.60580000  0.53100000  1
  O  O205  1  0.92510000  0.54370000  0.46180000  1
  O  O206  1  0.00860000  0.56290000  0.34010000  1
  O  O207  1  0.00740000  0.46120000  0.67320000  1
  O  O208  1  0.00830000  0.54850000  0.67280000  1
  O  O209  1  0.01150000  0.44880000  0.34010000  1
  O  O210  1  0.11620000  0.45540000  0.67440000  1
  O  O211  1  0.21580000  0.55700000  0.67300000  1
  Zr  Zr212  1  0.85080000  0.42538000  0.42542000  1
  Zr  Zr213  1  0.14920000  0.57462000  0.57458000  1
  Zr  Zr214  1  0.00004000  0.42542000  0.57462000  1
  Zr  Zr215  1  0.99996000  0.57458000  0.42538000  1
  Zr  Zr216  1  0.00000000  0.42527000  0.42527000  1
  Zr  Zr217  1  0.00000000  0.57473000  0.57473000  1
