# generated using pymatgen
data_Zr3H24(C3O)16
_symmetry_space_group_name_H-M   'P 1'
_cell_length_a   21.38191911
_cell_length_b   21.38191911
_cell_length_c   21.38191911
_cell_angle_alpha   60.00000000
_cell_angle_beta   60.00000000
_cell_angle_gamma   60.00000000
_symmetry_Int_Tables_number   1
_chemical_formula_structural   Zr3H24(C3O)16
_chemical_formula_sum   'Zr6 H48 C96 O32'
_cell_volume   6912.33931997
_cell_formula_units_Z   2
loop_
 _symmetry_equiv_pos_site_id
 _symmetry_equiv_pos_as_xyz
  1  'x, y, z'
loop_
 _atom_site_type_symbol
 _atom_site_label
 _atom_site_symmetry_multiplicity
 _atom_site_fract_x
 _atom_site_fract_y
 _atom_site_fract_z
 _atom_site_occupancy
  C  C0  1  0.69230000  0.94350000  0.05650000  1
  C  C1  1  0.62690000  0.94310000  0.05690000  1
  C  C2  1  0.79280000  1.00000000  1.00000000  1
  C  C3  1  0.72380000  0.00000000  0.00000000  1
  C  C4  1  0.59460000  1.00000000  0.00000000  1
  C  C5  1  0.52760000  1.00000000  0.00000000  1
  C  C6  1  0.94350000  0.30770000  0.69230000  1
  C  C7  1  0.94310000  0.37310000  0.62690000  1
  C  C8  1  0.00000000  0.20720000  0.79280000  1
  C  C9  1  0.00000000  0.27620000  0.72380000  1
  C  C10  1  0.00000000  0.40540000  0.59460000  1
  C  C11  1  0.00000000  0.47240000  0.52760000  1
  C  C12  1  0.30770000  0.05650000  0.94350000  1
  C  C13  1  0.37310000  0.05690000  0.94310000  1
  C  C14  1  0.20720000  0.00000000  0.00000000  1
  C  C15  1  0.27620000  1.00000000  1.00000000  1
  C  C16  1  0.40540000  1.00000000  1.00000000  1
  C  C17  1  0.47240000  1.00000000  1.00000000  1
  C  C18  1  0.05650000  0.69230000  0.30770000  1
  C  C19  1  0.05690000  0.62690000  0.37310000  1
  C  C20  1  0.00000000  0.79280000  0.20720000  1
  C  C21  1  0.00000000  0.72380000  0.27620000  1
  C  C22  1  0.00000000  0.59460000  0.40540000  1
  C  C23  1  0.00000000  0.52760000  0.47240000  1
  C  C24  1  0.94350000  0.69230000  0.30770000  1
  C  C25  1  0.94310000  0.62690000  0.37310000  1
  C  C26  1  0.69230000  0.05650000  0.94350000  1
  C  C27  1  0.62690000  0.05690000  0.94310000  1
  C  C28  1  0.05650000  0.30770000  0.69230000  1
  C  C29  1  0.05690000  0.37310000  0.62690000  1
  C  C30  1  0.30770000  0.94350000  0.05650000  1
  C  C31  1  0.37310000  0.94310000  0.05690000  1
  C  C32  1  0.94350000  0.05650000  0.69230000  1
  C  C33  1  0.94310000  0.05690000  0.62690000  1
  C  C34  1  0.00000000  1.00000000  0.79280000  1
  C  C35  1  0.00000000  0.00000000  0.72380000  1
  C  C36  1  0.00000000  1.00000000  0.59460000  1
  C  C37  1  0.00000000  0.00000000  0.52760000  1
  C  C38  1  0.30770000  0.05650000  0.69230000  1
  C  C39  1  0.37310000  0.05690000  0.62690000  1
  C  C40  1  0.20720000  0.00000000  0.79280000  1
  C  C41  1  0.27620000  1.00000000  0.72380000  1
  C  C42  1  0.40540000  1.00000000  0.59460000  1
  C  C43  1  0.47240000  1.00000000  0.52760000  1
  C  C44  1  0.30770000  0.69230000  0.05650000  1
  C  C45  1  0.37310000  0.62690000  0.05690000  1
  C  C46  1  0.20720000  0.79280000  0.00000000  1
  C  C47  1  0.27620000  0.72380000  0.00000000  1
  C  C48  1  0.40540000  0.59460000  0.00000000  1
  C  C49  1  0.47240000  0.52760000  0.00000000  1
  C  C50  1  0.94350000  0.69230000  0.05650000  1
  C  C51  1  0.94310000  0.62690000  0.05690000  1
  C  C52  1  0.00000000  0.79280000  1.00000000  1
  C  C53  1  0.00000000  0.72380000  0.00000000  1
  C  C54  1  0.00000000  0.59460000  1.00000000  1
  C  C55  1  0.00000000  0.52760000  1.00000000  1
  C  C56  1  0.05650000  0.94350000  0.30770000  1
  C  C57  1  0.05690000  0.94310000  0.37310000  1
  C  C58  1  0.00000000  0.00000000  0.20720000  1
  C  C59  1  0.00000000  1.00000000  0.27620000  1
  C  C60  1  0.00000000  1.00000000  0.40540000  1
  C  C61  1  0.00000000  0.00000000  0.47240000  1
  C  C62  1  0.69230000  0.94350000  0.30770000  1
  C  C63  1  0.62690000  0.94310000  0.37310000  1
  C  C64  1  0.79280000  1.00000000  0.20720000  1
  C  C65  1  0.72380000  0.00000000  0.27620000  1
  C  C66  1  0.59460000  1.00000000  0.40540000  1
  C  C67  1  0.52760000  1.00000000  0.47240000  1
  C  C68  1  0.69230000  0.30770000  0.94350000  1
  C  C69  1  0.62690000  0.37310000  0.94310000  1
  C  C70  1  0.79280000  0.20720000  0.00000000  1
  C  C71  1  0.72380000  0.27620000  0.00000000  1
  C  C72  1  0.59460000  0.40540000  0.00000000  1
  C  C73  1  0.52760000  0.47240000  0.00000000  1
  C  C74  1  0.05650000  0.30770000  0.94350000  1
  C  C75  1  0.05690000  0.37310000  0.94310000  1
  C  C76  1  0.00000000  0.20720000  0.00000000  1
  C  C77  1  0.00000000  0.27620000  1.00000000  1
  C  C78  1  0.00000000  0.40540000  1.00000000  1
  C  C79  1  0.00000000  0.47240000  0.00000000  1
  C  C80  1  0.05650000  0.69230000  0.94350000  1
  C  C81  1  0.05690000  0.62690000  0.94310000  1
  C  C82  1  0.69230000  0.05650000  0.30770000  1
  C  C83  1  0.62690000  0.05690000  0.37310000  1
  C  C84  1  0.69230000  0.30770000  0.05650000  1
  C  C85  1  0.62690000  0.37310000  0.05690000  1
  C  C86  1  0.94350000  0.30770000  0.05650000  1
  C  C87  1  0.94310000  0.37310000  0.05690000  1
  C  C88  1  0.94350000  0.05650000  0.30770000  1
  C  C89  1  0.94310000  0.05690000  0.37310000  1
  C  C90  1  0.30770000  0.94350000  0.69230000  1
  C  C91  1  0.37310000  0.94310000  0.62690000  1
  C  C92  1  0.30770000  0.69230000  0.94350000  1
  C  C93  1  0.37310000  0.62690000  0.94310000  1
  C  C94  1  0.05650000  0.94350000  0.69230000  1
  C  C95  1  0.05690000  0.94310000  0.62690000  1
  H  H96  1  0.71480000  0.90520000  0.09480000  1
  H  H97  1  0.60470000  0.90470000  0.09530000  1
  H  H98  1  0.90520000  0.28520000  0.71480000  1
  H  H99  1  0.90470000  0.39530000  0.60470000  1
  H  H100  1  0.28520000  0.09480000  0.90520000  1
  H  H101  1  0.39530000  0.09530000  0.90470000  1
  H  H102  1  0.09480000  0.71480000  0.28520000  1
  H  H103  1  0.09530000  0.60470000  0.39530000  1
  H  H104  1  0.90520000  0.71480000  0.28520000  1
  H  H105  1  0.90470000  0.60470000  0.39530000  1
  H  H106  1  0.71480000  0.09480000  0.90520000  1
  H  H107  1  0.60470000  0.09530000  0.90470000  1
  H  H108  1  0.09480000  0.28520000  0.71480000  1
  H  H109  1  0.09530000  0.39530000  0.60470000  1
  H  H110  1  0.28520000  0.90520000  0.09480000  1
  H  H111  1  0.39530000  0.90470000  0.09530000  1
  H  H112  1  0.90520000  0.09480000  0.71480000  1
  H  H113  1  0.90470000  0.09530000  0.60470000  1
  H  H114  1  0.28520000  0.09480000  0.71480000  1
  H  H115  1  0.39530000  0.09530000  0.60470000  1
  H  H116  1  0.28520000  0.71480000  0.09480000  1
  H  H117  1  0.39530000  0.60470000  0.09530000  1
  H  H118  1  0.90520000  0.71480000  0.09480000  1
  H  H119  1  0.90470000  0.60470000  0.09530000  1
  H  H120  1  0.09480000  0.90520000  0.28520000  1
  H  H121  1  0.09530000  0.90470000  0.39530000  1
  H  H122  1  0.71480000  0.90520000  0.28520000  1
  H  H123  1  0.60470000  0.90470000  0.39530000  1
  H  H124  1  0.71480000  0.28520000  0.90520000  1
  H  H125  1  0.60470000  0.39530000  0.90470000  1
  H  H126  1  0.09480000  0.28520000  0.90520000  1
  H  H127  1  0.09530000  0.39530000  0.90470000  1
  H  H128  1  0.09480000  0.71480000  0.90520000  1
  H  H129  1  0.09530000  0.60470000  0.90470000  1
  H  H130  1  0.71480000  0.09480000  0.28520000  1
  H  H131  1  0.60470000  0.09530000  0.39530000  1
  H  H132  1  0.71480000  0.28520000  0.09480000  1
  H  H133  1  0.60470000  0.39530000  0.09530000  1
  H  H134  1  0.90520000  0.28520000  0.09480000  1
  H  H135  1  0.90470000  0.39530000  0.09530000  1
  H  H136  1  0.90520000  0.09480000  0.28520000  1
  H  H137  1  0.90470000  0.09530000  0.39530000  1
  H  H138  1  0.28520000  0.90520000  0.71480000  1
  H  H139  1  0.39530000  0.90470000  0.60470000  1
  H  H140  1  0.28520000  0.71480000  0.90520000  1
  H  H141  1  0.39530000  0.60470000  0.90470000  1
  H  H142  1  0.09480000  0.90520000  0.71480000  1
  H  H143  1  0.09530000  0.90470000  0.60470000  1
  O  O144  1  0.81840000  0.05344000  0.94656000  1
  O  O145  1  0.88051000  0.03983000  0.03983000  1
  O  O146  1  0.05344000  0.18160000  0.81840000  1
  O  O147  1  0.96017000  0.11949000  0.96017000  1
  O  O148  1  0.18160000  0.94656000  0.05344000  1
  O  O149  1  0.03983000  0.03983000  0.03983000  1
  O  O150  1  0.94656000  0.81840000  0.18160000  1
  O  O151  1  0.96017000  0.96017000  0.11949000  1
  O  O152  1  0.05344000  0.81840000  0.18160000  1
  O  O153  1  0.03983000  0.88051000  0.03983000  1
  O  O154  1  0.81840000  0.94656000  0.05344000  1
  O  O155  1  0.96017000  0.96017000  0.96017000  1
  O  O156  1  0.94656000  0.18160000  0.81840000  1
  O  O157  1  0.03983000  0.03983000  0.88051000  1
  O  O158  1  0.18160000  0.05344000  0.94656000  1
  O  O159  1  0.11949000  0.96017000  0.96017000  1
  O  O160  1  0.05344000  0.94656000  0.81840000  1
  O  O161  1  0.18160000  0.94656000  0.81840000  1
  O  O162  1  0.18160000  0.81840000  0.94656000  1
  O  O163  1  0.05344000  0.81840000  0.94656000  1
  O  O164  1  0.94656000  0.05344000  0.18160000  1
  O  O165  1  0.81840000  0.05344000  0.18160000  1
  O  O166  1  0.81840000  0.18160000  0.05344000  1
  O  O167  1  0.94656000  0.18160000  0.05344000  1
  O  O168  1  0.94656000  0.81840000  0.05344000  1
  O  O169  1  0.81840000  0.94656000  0.18160000  1
  O  O170  1  0.81840000  0.18160000  0.94656000  1
  O  O171  1  0.05344000  0.18160000  0.94656000  1
  O  O172  1  0.05344000  0.94656000  0.18160000  1
  O  O173  1  0.18160000  0.05344000  0.81840000  1
  O  O174  1  0.18160000  0.81840000  0.05344000  1
  O  O175  1  0.94656000  0.05344000  0.81840000  1
  Zr  Zr176  1  0.91857000  0.08143000  0.91857000  1
  Zr  Zr177  1  0.08143000  0.08143000  0.91857000  1
  Zr  Zr178  1  0.08143000  0.91857000  0.08143000  1
  Zr  Zr179  1  0.91857000  0.91857000  0.08143000  1
  Zr  Zr180  1  0.08143000  0.91857000  0.91857000  1
  Zr  Zr181  1  0.91857000  0.08143000  0.08143000  1
