# generated using pymatgen
data_Zr3H2(C2O3)6
_symmetry_space_group_name_H-M   'P 1'
_cell_length_a   24.76880000
_cell_length_b   24.99190000
_cell_length_c   24.99190000
_cell_angle_alpha   120.00000000
_cell_angle_beta   90.00000000
_cell_angle_gamma   90.00000000
_symmetry_Int_Tables_number   1
_chemical_formula_structural   Zr3H2(C2O3)6
_chemical_formula_sum   'Zr36 H24 C144 O216'
_cell_volume   13397.82025459
_cell_formula_units_Z   12
loop_
 _symmetry_equiv_pos_site_id
 _symmetry_equiv_pos_as_xyz
  1  'x, y, z'
loop_
 _atom_site_type_symbol
 _atom_site_label
 _atom_site_symmetry_multiplicity
 _atom_site_fract_x
 _atom_site_fract_y
 _atom_site_fract_z
 _atom_site_occupancy
  Zr  Zr0  1  0.52522000  0.61107000  0.08016000  1
  Zr  Zr1  1  0.40726000  0.51855000  0.03711000  1
  Zr  Zr2  1  0.02522000  0.08016000  0.46909000  1
  Zr  Zr3  1  0.90726000  0.03711000  0.51856000  1
  Zr  Zr4  1  0.52522000  0.46909000  0.38893000  1
  Zr  Zr5  1  0.40726000  0.51856000  0.48145000  1
  Zr  Zr6  1  0.02522000  0.38893000  0.91984000  1
  Zr  Zr7  1  0.90726000  0.48145000  0.96289000  1
  Zr  Zr8  1  0.52522000  0.91984000  0.53091000  1
  Zr  Zr9  1  0.40726000  0.96289000  0.48144000  1
  Zr  Zr10  1  0.02522000  0.53091000  0.61107000  1
  Zr  Zr11  1  0.90726000  0.48144000  0.51855000  1
  Zr  Zr12  1  0.97478000  0.46909000  0.08016000  1
  Zr  Zr13  1  0.09274000  0.51856000  0.03711000  1
  Zr  Zr14  1  0.47478000  0.08016000  0.61107000  1
  Zr  Zr15  1  0.59274000  0.03711000  0.51855000  1
  Zr  Zr16  1  0.97478000  0.61107000  0.53091000  1
  Zr  Zr17  1  0.09274000  0.51855000  0.48144000  1
  Zr  Zr18  1  0.47478000  0.53091000  0.91984000  1
  Zr  Zr19  1  0.59274000  0.48144000  0.96289000  1
  Zr  Zr20  1  0.97478000  0.91984000  0.38893000  1
  Zr  Zr21  1  0.09274000  0.96289000  0.48145000  1
  Zr  Zr22  1  0.47478000  0.38893000  0.46909000  1
  Zr  Zr23  1  0.59274000  0.48145000  0.51856000  1
  Zr  Zr24  1  0.47478000  0.38893000  0.91984000  1
  Zr  Zr25  1  0.97478000  0.91984000  0.53091000  1
  Zr  Zr26  1  0.47478000  0.53091000  0.61107000  1
  Zr  Zr27  1  0.97478000  0.61107000  0.08016000  1
  Zr  Zr28  1  0.47478000  0.08016000  0.46909000  1
  Zr  Zr29  1  0.97478000  0.46909000  0.38893000  1
  Zr  Zr30  1  0.02522000  0.53091000  0.91984000  1
  Zr  Zr31  1  0.52522000  0.91984000  0.38893000  1
  Zr  Zr32  1  0.02522000  0.38893000  0.46909000  1
  Zr  Zr33  1  0.52522000  0.46909000  0.08016000  1
  Zr  Zr34  1  0.02522000  0.08016000  0.61107000  1
  Zr  Zr35  1  0.52522000  0.61107000  0.53091000  1
  H  H36  1  0.30281000  0.66587000  0.20537000  1
  H  H37  1  0.80281000  0.20537000  0.53950000  1
  H  H38  1  0.30281000  0.53950000  0.33413000  1
  H  H39  1  0.80281000  0.33413000  0.79463000  1
  H  H40  1  0.30281000  0.79463000  0.46050000  1
  H  H41  1  0.80281000  0.46050000  0.66587000  1
  H  H42  1  0.19719000  0.53950000  0.20537000  1
  H  H43  1  0.69719000  0.20537000  0.66587000  1
  H  H44  1  0.19719000  0.66587000  0.46050000  1
  H  H45  1  0.69719000  0.46050000  0.79463000  1
  H  H46  1  0.19719000  0.79463000  0.33413000  1
  H  H47  1  0.69719000  0.33413000  0.53950000  1
  H  H48  1  0.69719000  0.33413000  0.79463000  1
  H  H49  1  0.19719000  0.79463000  0.46050000  1
  H  H50  1  0.69719000  0.46050000  0.66587000  1
  H  H51  1  0.19719000  0.66587000  0.20537000  1
  H  H52  1  0.69719000  0.20537000  0.53950000  1
  H  H53  1  0.19719000  0.53950000  0.33413000  1
  H  H54  1  0.80281000  0.46050000  0.79463000  1
  H  H55  1  0.30281000  0.79463000  0.33413000  1
  H  H56  1  0.80281000  0.33413000  0.53950000  1
  H  H57  1  0.30281000  0.53950000  0.20537000  1
  H  H58  1  0.80281000  0.20537000  0.66587000  1
  H  H59  1  0.30281000  0.66587000  0.46050000  1
  C  C60  1  0.41110000  0.66180000  0.14420000  1
  C  C61  1  0.38160000  0.70930000  0.20360000  1
  C  C62  1  0.33070000  0.70740000  0.23090000  1
  C  C63  1  0.65510000  0.60700000  0.04600000  1
  C  C64  1  0.70340000  0.65040000  0.06900000  1
  C  C65  1  0.72090000  0.70870000  0.12030000  1
  C  C66  1  0.91110000  0.14420000  0.48240000  1
  C  C67  1  0.88160000  0.20360000  0.49430000  1
  C  C68  1  0.83070000  0.23090000  0.52350000  1
  C  C69  1  0.15510000  0.04600000  0.43900000  1
  C  C70  1  0.20340000  0.06900000  0.41860000  1
  C  C71  1  0.22090000  0.12030000  0.41160000  1
  C  C72  1  0.41110000  0.48240000  0.33820000  1
  C  C73  1  0.38160000  0.49430000  0.29070000  1
  C  C74  1  0.33070000  0.52350000  0.29260000  1
  C  C75  1  0.65510000  0.43900000  0.39300000  1
  C  C76  1  0.70340000  0.41860000  0.34960000  1
  C  C77  1  0.72090000  0.41160000  0.29130000  1
  C  C78  1  0.91110000  0.33820000  0.85580000  1
  C  C79  1  0.88160000  0.29070000  0.79640000  1
  C  C80  1  0.83070000  0.29260000  0.76910000  1
  C  C81  1  0.15510000  0.39300000  0.95400000  1
  C  C82  1  0.20340000  0.34960000  0.93100000  1
  C  C83  1  0.22090000  0.29130000  0.87970000  1
  C  C84  1  0.41110000  0.85580000  0.51760000  1
  C  C85  1  0.38160000  0.79640000  0.50570000  1
  C  C86  1  0.33070000  0.76910000  0.47650000  1
  C  C87  1  0.65510000  0.95400000  0.56100000  1
  C  C88  1  0.70340000  0.93100000  0.58140000  1
  C  C89  1  0.72090000  0.87970000  0.58840000  1
  C  C90  1  0.91110000  0.51760000  0.66180000  1
  C  C91  1  0.88160000  0.50570000  0.70930000  1
  C  C92  1  0.83070000  0.47650000  0.70740000  1
  C  C93  1  0.15510000  0.56100000  0.60700000  1
  C  C94  1  0.20340000  0.58140000  0.65040000  1
  C  C95  1  0.22090000  0.58840000  0.70870000  1
  C  C96  1  0.08890000  0.48240000  0.14420000  1
  C  C97  1  0.11840000  0.49430000  0.20360000  1
  C  C98  1  0.16930000  0.52350000  0.23090000  1
  C  C99  1  0.84490000  0.43900000  0.04600000  1
  C  C100  1  0.79660000  0.41860000  0.06900000  1
  C  C101  1  0.77910000  0.41160000  0.12030000  1
  C  C102  1  0.58890000  0.14420000  0.66180000  1
  C  C103  1  0.61840000  0.20360000  0.70930000  1
  C  C104  1  0.66930000  0.23090000  0.70740000  1
  C  C105  1  0.34490000  0.04600000  0.60700000  1
  C  C106  1  0.29660000  0.06900000  0.65040000  1
  C  C107  1  0.27910000  0.12030000  0.70870000  1
  C  C108  1  0.08890000  0.66180000  0.51760000  1
  C  C109  1  0.11840000  0.70930000  0.50570000  1
  C  C110  1  0.16930000  0.70740000  0.47650000  1
  C  C111  1  0.84490000  0.60700000  0.56100000  1
  C  C112  1  0.79660000  0.65040000  0.58140000  1
  C  C113  1  0.77910000  0.70870000  0.58840000  1
  C  C114  1  0.58890000  0.51760000  0.85580000  1
  C  C115  1  0.61840000  0.50570000  0.79640000  1
  C  C116  1  0.66930000  0.47650000  0.76910000  1
  C  C117  1  0.34490000  0.56100000  0.95400000  1
  C  C118  1  0.29660000  0.58140000  0.93100000  1
  C  C119  1  0.27910000  0.58840000  0.87970000  1
  C  C120  1  0.08890000  0.85580000  0.33820000  1
  C  C121  1  0.11840000  0.79640000  0.29070000  1
  C  C122  1  0.16930000  0.76910000  0.29260000  1
  C  C123  1  0.84490000  0.95400000  0.39300000  1
  C  C124  1  0.79660000  0.93100000  0.34960000  1
  C  C125  1  0.77910000  0.87970000  0.29130000  1
  C  C126  1  0.58890000  0.33820000  0.48240000  1
  C  C127  1  0.61840000  0.29070000  0.49430000  1
  C  C128  1  0.66930000  0.29260000  0.52350000  1
  C  C129  1  0.34490000  0.39300000  0.43900000  1
  C  C130  1  0.29660000  0.34960000  0.41860000  1
  C  C131  1  0.27910000  0.29130000  0.41160000  1
  C  C132  1  0.58890000  0.33820000  0.85580000  1
  C  C133  1  0.61840000  0.29070000  0.79640000  1
  C  C134  1  0.66930000  0.29260000  0.76910000  1
  C  C135  1  0.34490000  0.39300000  0.95400000  1
  C  C136  1  0.29660000  0.34960000  0.93100000  1
  C  C137  1  0.27910000  0.29130000  0.87970000  1
  C  C138  1  0.08890000  0.85580000  0.51760000  1
  C  C139  1  0.11840000  0.79640000  0.50570000  1
  C  C140  1  0.16930000  0.76910000  0.47650000  1
  C  C141  1  0.84490000  0.95400000  0.56100000  1
  C  C142  1  0.79660000  0.93100000  0.58140000  1
  C  C143  1  0.77910000  0.87970000  0.58840000  1
  C  C144  1  0.58890000  0.51760000  0.66180000  1
  C  C145  1  0.61840000  0.50570000  0.70930000  1
  C  C146  1  0.66930000  0.47650000  0.70740000  1
  C  C147  1  0.34490000  0.56100000  0.60700000  1
  C  C148  1  0.29660000  0.58140000  0.65040000  1
  C  C149  1  0.27910000  0.58840000  0.70870000  1
  C  C150  1  0.08890000  0.66180000  0.14420000  1
  C  C151  1  0.11840000  0.70930000  0.20360000  1
  C  C152  1  0.16930000  0.70740000  0.23090000  1
  C  C153  1  0.84490000  0.60700000  0.04600000  1
  C  C154  1  0.79660000  0.65040000  0.06900000  1
  C  C155  1  0.77910000  0.70870000  0.12030000  1
  C  C156  1  0.58890000  0.14420000  0.48240000  1
  C  C157  1  0.61840000  0.20360000  0.49430000  1
  C  C158  1  0.66930000  0.23090000  0.52350000  1
  C  C159  1  0.34490000  0.04600000  0.43900000  1
  C  C160  1  0.29660000  0.06900000  0.41860000  1
  C  C161  1  0.27910000  0.12030000  0.41160000  1
  C  C162  1  0.08890000  0.48240000  0.33820000  1
  C  C163  1  0.11840000  0.49430000  0.29070000  1
  C  C164  1  0.16930000  0.52350000  0.29260000  1
  C  C165  1  0.84490000  0.43900000  0.39300000  1
  C  C166  1  0.79660000  0.41860000  0.34960000  1
  C  C167  1  0.77910000  0.41160000  0.29130000  1
  C  C168  1  0.91110000  0.51760000  0.85580000  1
  C  C169  1  0.88160000  0.50570000  0.79640000  1
  C  C170  1  0.83070000  0.47650000  0.76910000  1
  C  C171  1  0.15510000  0.56100000  0.95400000  1
  C  C172  1  0.20340000  0.58140000  0.93100000  1
  C  C173  1  0.22090000  0.58840000  0.87970000  1
  C  C174  1  0.41110000  0.85580000  0.33820000  1
  C  C175  1  0.38160000  0.79640000  0.29070000  1
  C  C176  1  0.33070000  0.76910000  0.29260000  1
  C  C177  1  0.65510000  0.95400000  0.39300000  1
  C  C178  1  0.70340000  0.93100000  0.34960000  1
  C  C179  1  0.72090000  0.87970000  0.29130000  1
  C  C180  1  0.91110000  0.33820000  0.48240000  1
  C  C181  1  0.88160000  0.29070000  0.49430000  1
  C  C182  1  0.83070000  0.29260000  0.52350000  1
  C  C183  1  0.15510000  0.39300000  0.43900000  1
  C  C184  1  0.20340000  0.34960000  0.41860000  1
  C  C185  1  0.22090000  0.29130000  0.41160000  1
  C  C186  1  0.41110000  0.48240000  0.14420000  1
  C  C187  1  0.38160000  0.49430000  0.20360000  1
  C  C188  1  0.33070000  0.52350000  0.23090000  1
  C  C189  1  0.65510000  0.43900000  0.04600000  1
  C  C190  1  0.70340000  0.41860000  0.06900000  1
  C  C191  1  0.72090000  0.41160000  0.12030000  1
  C  C192  1  0.91110000  0.14420000  0.66180000  1
  C  C193  1  0.88160000  0.20360000  0.70930000  1
  C  C194  1  0.83070000  0.23090000  0.70740000  1
  C  C195  1  0.15510000  0.04600000  0.60700000  1
  C  C196  1  0.20340000  0.06900000  0.65040000  1
  C  C197  1  0.22090000  0.12030000  0.70870000  1
  C  C198  1  0.41110000  0.66180000  0.51760000  1
  C  C199  1  0.38160000  0.70930000  0.50570000  1
  C  C200  1  0.33070000  0.70740000  0.47650000  1
  C  C201  1  0.65510000  0.60700000  0.56100000  1
  C  C202  1  0.70340000  0.65040000  0.58140000  1
  C  C203  1  0.72090000  0.70870000  0.58840000  1
  O  O204  1  0.45800000  0.56960000  0.01340000  1
  O  O205  1  0.56490000  0.63160000  0.16400000  1
  O  O206  1  0.51680000  0.69070000  0.06970000  1
  O  O207  1  0.46140000  0.66840000  0.13190000  1
  O  O208  1  0.39180000  0.60670000  0.11110000  1
  O  O209  1  0.60905000  0.63090000  0.06920000  1
  O  O210  1  0.64890000  0.55260000  0.00130000  1
  O  O211  1  0.56580000  0.53030000  0.06060000  1
  O  O212  1  0.48240000  0.54480000  0.08960000  1
  O  O213  1  0.41470000  0.76035000  0.23965000  1
  O  O214  1  0.75000000  0.62400000  0.03450000  1
  O  O215  1  0.95800000  0.01340000  0.44380000  1
  O  O216  1  0.06490000  0.16400000  0.53240000  1
  O  O217  1  0.01680000  0.06970000  0.37900000  1
  O  O218  1  0.96140000  0.13190000  0.46350000  1
  O  O219  1  0.89180000  0.11110000  0.50440000  1
  O  O220  1  0.10905000  0.06920000  0.43830000  1
  O  O221  1  0.14890000  0.00130000  0.44870000  1
  O  O222  1  0.06580000  0.06060000  0.53030000  1
  O  O223  1  0.98240000  0.08960000  0.54480000  1
  O  O224  1  0.91470000  0.23965000  0.47930000  1
  O  O225  1  0.25000000  0.03450000  0.41050000  1
  O  O226  1  0.45800000  0.44380000  0.43040000  1
  O  O227  1  0.56490000  0.53240000  0.36840000  1
  O  O228  1  0.51680000  0.37900000  0.30930000  1
  O  O229  1  0.46140000  0.46350000  0.33160000  1
  O  O230  1  0.39180000  0.50440000  0.39330000  1
  O  O231  1  0.60905000  0.43830000  0.36910000  1
  O  O232  1  0.64890000  0.44870000  0.44740000  1
  O  O233  1  0.56580000  0.53030000  0.46970000  1
  O  O234  1  0.48240000  0.54480000  0.45520000  1
  O  O235  1  0.41470000  0.47930000  0.23965000  1
  O  O236  1  0.75000000  0.41050000  0.37600000  1
  O  O237  1  0.95800000  0.43040000  0.98660000  1
  O  O238  1  0.06490000  0.36840000  0.83600000  1
  O  O239  1  0.01680000  0.30930000  0.93030000  1
  O  O240  1  0.96140000  0.33160000  0.86810000  1
  O  O241  1  0.89180000  0.39330000  0.88890000  1
  O  O242  1  0.10905000  0.36910000  0.93080000  1
  O  O243  1  0.14890000  0.44740000  0.99870000  1
  O  O244  1  0.06580000  0.46970000  0.93940000  1
  O  O245  1  0.98240000  0.45520000  0.91040000  1
  O  O246  1  0.91470000  0.23965000  0.76035000  1
  O  O247  1  0.25000000  0.37600000  0.96550000  1
  O  O248  1  0.45800000  0.98660000  0.55620000  1
  O  O249  1  0.56490000  0.83600000  0.46760000  1
  O  O250  1  0.51680000  0.93030000  0.62100000  1
  O  O251  1  0.46140000  0.86810000  0.53650000  1
  O  O252  1  0.39180000  0.88890000  0.49560000  1
  O  O253  1  0.60905000  0.93080000  0.56170000  1
  O  O254  1  0.64890000  0.99870000  0.55130000  1
  O  O255  1  0.56580000  0.93940000  0.46970000  1
  O  O256  1  0.48240000  0.91040000  0.45520000  1
  O  O257  1  0.41470000  0.76035000  0.52070000  1
  O  O258  1  0.75000000  0.96550000  0.58950000  1
  O  O259  1  0.95800000  0.55620000  0.56960000  1
  O  O260  1  0.06490000  0.46760000  0.63160000  1
  O  O261  1  0.01680000  0.62100000  0.69070000  1
  O  O262  1  0.96140000  0.53650000  0.66840000  1
  O  O263  1  0.89180000  0.49560000  0.60670000  1
  O  O264  1  0.10905000  0.56170000  0.63090000  1
  O  O265  1  0.14890000  0.55130000  0.55260000  1
  O  O266  1  0.06580000  0.46970000  0.53030000  1
  O  O267  1  0.98240000  0.45520000  0.54480000  1
  O  O268  1  0.91470000  0.52070000  0.76035000  1
  O  O269  1  0.25000000  0.58950000  0.62400000  1
  O  O270  1  0.04200000  0.44380000  0.01340000  1
  O  O271  1  0.93510000  0.53240000  0.16400000  1
  O  O272  1  0.98320000  0.37900000  0.06970000  1
  O  O273  1  0.03860000  0.46350000  0.13190000  1
  O  O274  1  0.10820000  0.50440000  0.11110000  1
  O  O275  1  0.89095000  0.43830000  0.06920000  1
  O  O276  1  0.85110000  0.44870000  0.00130000  1
  O  O277  1  0.93420000  0.53030000  0.06060000  1
  O  O278  1  0.01760000  0.54480000  0.08960000  1
  O  O279  1  0.08530000  0.47930000  0.23965000  1
  O  O280  1  0.75000000  0.41050000  0.03450000  1
  O  O281  1  0.54200000  0.01340000  0.56960000  1
  O  O282  1  0.43510000  0.16400000  0.63160000  1
  O  O283  1  0.48320000  0.06970000  0.69070000  1
  O  O284  1  0.53860000  0.13190000  0.66840000  1
  O  O285  1  0.60820000  0.11110000  0.60670000  1
  O  O286  1  0.39095000  0.06920000  0.63090000  1
  O  O287  1  0.35110000  0.00130000  0.55260000  1
  O  O288  1  0.43420000  0.06060000  0.53030000  1
  O  O289  1  0.51760000  0.08960000  0.54480000  1
  O  O290  1  0.58530000  0.23965000  0.76035000  1
  O  O291  1  0.25000000  0.03450000  0.62400000  1
  O  O292  1  0.04200000  0.56960000  0.55620000  1
  O  O293  1  0.93510000  0.63160000  0.46760000  1
  O  O294  1  0.98320000  0.69070000  0.62100000  1
  O  O295  1  0.03860000  0.66840000  0.53650000  1
  O  O296  1  0.10820000  0.60670000  0.49560000  1
  O  O297  1  0.89095000  0.63090000  0.56170000  1
  O  O298  1  0.85110000  0.55260000  0.55130000  1
  O  O299  1  0.93420000  0.53030000  0.46970000  1
  O  O300  1  0.01760000  0.54480000  0.45520000  1
  O  O301  1  0.08530000  0.76035000  0.52070000  1
  O  O302  1  0.75000000  0.62400000  0.58950000  1
  O  O303  1  0.54200000  0.55620000  0.98660000  1
  O  O304  1  0.43510000  0.46760000  0.83600000  1
  O  O305  1  0.48320000  0.62100000  0.93030000  1
  O  O306  1  0.53860000  0.53650000  0.86810000  1
  O  O307  1  0.60820000  0.49560000  0.88890000  1
  O  O308  1  0.39095000  0.56170000  0.93080000  1
  O  O309  1  0.35110000  0.55130000  0.99870000  1
  O  O310  1  0.43420000  0.46970000  0.93940000  1
  O  O311  1  0.51760000  0.45520000  0.91040000  1
  O  O312  1  0.58530000  0.52070000  0.76035000  1
  O  O313  1  0.25000000  0.58950000  0.96550000  1
  O  O314  1  0.04200000  0.98660000  0.43040000  1
  O  O315  1  0.93510000  0.83600000  0.36840000  1
  O  O316  1  0.98320000  0.93030000  0.30930000  1
  O  O317  1  0.03860000  0.86810000  0.33160000  1
  O  O318  1  0.10820000  0.88890000  0.39330000  1
  O  O319  1  0.89095000  0.93080000  0.36910000  1
  O  O320  1  0.85110000  0.99870000  0.44740000  1
  O  O321  1  0.93420000  0.93940000  0.46970000  1
  O  O322  1  0.01760000  0.91040000  0.45520000  1
  O  O323  1  0.08530000  0.76035000  0.23965000  1
  O  O324  1  0.75000000  0.96550000  0.37600000  1
  O  O325  1  0.54200000  0.43040000  0.44380000  1
  O  O326  1  0.43510000  0.36840000  0.53240000  1
  O  O327  1  0.48320000  0.30930000  0.37900000  1
  O  O328  1  0.53860000  0.33160000  0.46350000  1
  O  O329  1  0.60820000  0.39330000  0.50440000  1
  O  O330  1  0.39095000  0.36910000  0.43830000  1
  O  O331  1  0.35110000  0.44740000  0.44870000  1
  O  O332  1  0.43420000  0.46970000  0.53030000  1
  O  O333  1  0.51760000  0.45520000  0.54480000  1
  O  O334  1  0.58530000  0.23965000  0.47930000  1
  O  O335  1  0.25000000  0.37600000  0.41050000  1
  O  O336  1  0.54200000  0.43040000  0.98660000  1
  O  O337  1  0.43510000  0.36840000  0.83600000  1
  O  O338  1  0.48320000  0.30930000  0.93030000  1
  O  O339  1  0.53860000  0.33160000  0.86810000  1
  O  O340  1  0.60820000  0.39330000  0.88890000  1
  O  O341  1  0.39095000  0.36910000  0.93080000  1
  O  O342  1  0.35110000  0.44740000  0.99870000  1
  O  O343  1  0.04200000  0.98660000  0.55620000  1
  O  O344  1  0.93510000  0.83600000  0.46760000  1
  O  O345  1  0.98320000  0.93030000  0.62100000  1
  O  O346  1  0.03860000  0.86810000  0.53650000  1
  O  O347  1  0.10820000  0.88890000  0.49560000  1
  O  O348  1  0.89095000  0.93080000  0.56170000  1
  O  O349  1  0.85110000  0.99870000  0.55130000  1
  O  O350  1  0.54200000  0.55620000  0.56960000  1
  O  O351  1  0.43510000  0.46760000  0.63160000  1
  O  O352  1  0.48320000  0.62100000  0.69070000  1
  O  O353  1  0.53860000  0.53650000  0.66840000  1
  O  O354  1  0.60820000  0.49560000  0.60670000  1
  O  O355  1  0.39095000  0.56170000  0.63090000  1
  O  O356  1  0.35110000  0.55130000  0.55260000  1
  O  O357  1  0.04200000  0.56960000  0.01340000  1
  O  O358  1  0.93510000  0.63160000  0.16400000  1
  O  O359  1  0.98320000  0.69070000  0.06970000  1
  O  O360  1  0.03860000  0.66840000  0.13190000  1
  O  O361  1  0.10820000  0.60670000  0.11110000  1
  O  O362  1  0.89095000  0.63090000  0.06920000  1
  O  O363  1  0.85110000  0.55260000  0.00130000  1
  O  O364  1  0.54200000  0.01340000  0.44380000  1
  O  O365  1  0.43510000  0.16400000  0.53240000  1
  O  O366  1  0.48320000  0.06970000  0.37900000  1
  O  O367  1  0.53860000  0.13190000  0.46350000  1
  O  O368  1  0.60820000  0.11110000  0.50440000  1
  O  O369  1  0.39095000  0.06920000  0.43830000  1
  O  O370  1  0.35110000  0.00130000  0.44870000  1
  O  O371  1  0.04200000  0.44380000  0.43040000  1
  O  O372  1  0.93510000  0.53240000  0.36840000  1
  O  O373  1  0.98320000  0.37900000  0.30930000  1
  O  O374  1  0.03860000  0.46350000  0.33160000  1
  O  O375  1  0.10820000  0.50440000  0.39330000  1
  O  O376  1  0.89095000  0.43830000  0.36910000  1
  O  O377  1  0.85110000  0.44870000  0.44740000  1
  O  O378  1  0.95800000  0.55620000  0.98660000  1
  O  O379  1  0.06490000  0.46760000  0.83600000  1
  O  O380  1  0.01680000  0.62100000  0.93030000  1
  O  O381  1  0.96140000  0.53650000  0.86810000  1
  O  O382  1  0.89180000  0.49560000  0.88890000  1
  O  O383  1  0.10905000  0.56170000  0.93080000  1
  O  O384  1  0.14890000  0.55130000  0.99870000  1
  O  O385  1  0.45800000  0.98660000  0.43040000  1
  O  O386  1  0.56490000  0.83600000  0.36840000  1
  O  O387  1  0.51680000  0.93030000  0.30930000  1
  O  O388  1  0.46140000  0.86810000  0.33160000  1
  O  O389  1  0.39180000  0.88890000  0.39330000  1
  O  O390  1  0.60905000  0.93080000  0.36910000  1
  O  O391  1  0.64890000  0.99870000  0.44740000  1
  O  O392  1  0.95800000  0.43040000  0.44380000  1
  O  O393  1  0.06490000  0.36840000  0.53240000  1
  O  O394  1  0.01680000  0.30930000  0.37900000  1
  O  O395  1  0.96140000  0.33160000  0.46350000  1
  O  O396  1  0.89180000  0.39330000  0.50440000  1
  O  O397  1  0.10905000  0.36910000  0.43830000  1
  O  O398  1  0.14890000  0.44740000  0.44870000  1
  O  O399  1  0.45800000  0.44380000  0.01340000  1
  O  O400  1  0.56490000  0.53240000  0.16400000  1
  O  O401  1  0.51680000  0.37900000  0.06970000  1
  O  O402  1  0.46140000  0.46350000  0.13190000  1
  O  O403  1  0.39180000  0.50440000  0.11110000  1
  O  O404  1  0.60905000  0.43830000  0.06920000  1
  O  O405  1  0.64890000  0.44870000  0.00130000  1
  O  O406  1  0.95800000  0.01340000  0.56960000  1
  O  O407  1  0.06490000  0.16400000  0.63160000  1
  O  O408  1  0.01680000  0.06970000  0.69070000  1
  O  O409  1  0.96140000  0.13190000  0.66840000  1
  O  O410  1  0.89180000  0.11110000  0.60670000  1
  O  O411  1  0.10905000  0.06920000  0.63090000  1
  O  O412  1  0.14890000  0.00130000  0.55260000  1
  O  O413  1  0.45800000  0.56960000  0.55620000  1
  O  O414  1  0.56490000  0.63160000  0.46760000  1
  O  O415  1  0.51680000  0.69070000  0.62100000  1
  O  O416  1  0.46140000  0.66840000  0.53650000  1
  O  O417  1  0.39180000  0.60670000  0.49560000  1
  O  O418  1  0.60905000  0.63090000  0.56170000  1
  O  O419  1  0.64890000  0.55260000  0.55130000  1
