# generated using pymatgen
data_ZrH10(C7O2)2
_symmetry_space_group_name_H-M   'P 1'
_cell_length_a   12.94359488
_cell_length_b   12.94359488
_cell_length_c   13.56692476
_cell_angle_alpha   99.61155934
_cell_angle_beta   116.39955782
_cell_angle_gamma   111.03579940
_symmetry_Int_Tables_number   1
_chemical_formula_structural   ZrH10(C7O2)2
_chemical_formula_sum   'Zr4 H40 C56 O16'
_cell_volume   1749.26978563
_cell_formula_units_Z   4
loop_
 _symmetry_equiv_pos_site_id
 _symmetry_equiv_pos_as_xyz
  1  'x, y, z'
loop_
 _atom_site_type_symbol
 _atom_site_label
 _atom_site_symmetry_multiplicity
 _atom_site_fract_x
 _atom_site_fract_y
 _atom_site_fract_z
 _atom_site_occupancy
  C  C0  1  0.27460000  0.09590000  0.17670000  1
  C  C1  1  0.29090000  0.04340000  0.26550000  1
  C  C2  1  0.30080000  0.00550000  0.33910000  1
  C  C3  1  0.52860000  0.38280000  0.05940000  1
  C  C4  1  0.09100000  0.09500000  0.80200000  1
  C  C5  1  0.08320000  0.01220000  0.84700000  1
  C  C6  1  0.20600000  0.01300000  0.89300000  1
  C  C7  1  0.28300000  0.10500000  0.87400000  1
  C  C8  1  0.21200000  0.15400000  0.82200000  1
  C  C9  1  0.07600000  0.25120000  0.01120000  1
  C  C10  1  0.17000000  0.29230000  0.13030000  1
  C  C11  1  0.28000000  0.38380000  0.16180000  1
  C  C12  1  0.26460000  0.40660000  0.06000000  1
  C  C13  1  0.13400000  0.32100000  0.96300000  1
  C  C14  1  0.32340000  0.96920000  0.44060000  1
  C  C15  1  0.66640000  0.46170000  0.16090000  1
  C  C16  1  0.77790000  0.52540000  0.23450000  1
  C  C17  1  0.91920000  0.59790000  0.32330000  1
  C  C18  1  0.29300000  0.78900000  0.69800000  1
  C  C19  1  0.16520000  0.73620000  0.65300000  1
  C  C20  1  0.12000000  0.81300000  0.60700000  1
  C  C21  1  0.23100000  0.90900000  0.62600000  1
  C  C22  1  0.33200000  0.89000000  0.67800000  1
  C  C23  1  0.24000000  0.56480000  0.48880000  1
  C  C24  1  0.16200000  0.53970000  0.36970000  1
  C  C25  1  0.22200000  0.61820000  0.33820000  1
  C  C26  1  0.34660000  0.70460000  0.44000000  1
  C  C27  1  0.35800000  0.67100000  0.53700000  1
  C  C28  1  0.72540000  0.90410000  0.82330000  1
  C  C29  1  0.70910000  0.95660000  0.73450000  1
  C  C30  1  0.69920000  0.99450000  0.66090000  1
  C  C31  1  0.47140000  0.61720000  0.94060000  1
  C  C32  1  0.90900000  0.90500000  0.19800000  1
  C  C33  1  0.91680000  0.98780000  0.15300000  1
  C  C34  1  0.79400000  0.98700000  0.10700000  1
  C  C35  1  0.71700000  0.89500000  0.12600000  1
  C  C36  1  0.78800000  0.84600000  0.17800000  1
  C  C37  1  0.92400000  0.74880000  0.98880000  1
  C  C38  1  0.83000000  0.70770000  0.86970000  1
  C  C39  1  0.72000000  0.61620000  0.83820000  1
  C  C40  1  0.73540000  0.59340000  0.94000000  1
  C  C41  1  0.86600000  0.67900000  0.03700000  1
  C  C42  1  0.67660000  0.03080000  0.55940000  1
  C  C43  1  0.33360000  0.53830000  0.83910000  1
  C  C44  1  0.22210000  0.47460000  0.76550000  1
  C  C45  1  0.08080000  0.40210000  0.67670000  1
  C  C46  1  0.70700000  0.21100000  0.30200000  1
  C  C47  1  0.83480000  0.26380000  0.34700000  1
  C  C48  1  0.88000000  0.18700000  0.39300000  1
  C  C49  1  0.76900000  0.09100000  0.37400000  1
  C  C50  1  0.66800000  0.11000000  0.32200000  1
  C  C51  1  0.76000000  0.43520000  0.51120000  1
  C  C52  1  0.83800000  0.46030000  0.63030000  1
  C  C53  1  0.77800000  0.38180000  0.66180000  1
  C  C54  1  0.65340000  0.29540000  0.56000000  1
  C  C55  1  0.64200000  0.32900000  0.46300000  1
  H  H56  1  0.01100000  0.11270000  0.75630000  1
  H  H57  1  0.00000000  0.95380000  0.84800000  1
  H  H58  1  0.23490000  0.95520000  0.93510000  1
  H  H59  1  0.38240000  0.13050000  0.89730000  1
  H  H60  1  0.24530000  0.22890000  0.79860000  1
  H  H61  1  0.97580000  0.17860000  0.96320000  1
  H  H62  1  0.15440000  0.25310000  0.19050000  1
  H  H63  1  0.36790000  0.43290000  0.25100000  1
  H  H64  1  0.33790000  0.47740000  0.05690000  1
  H  H65  1  0.08900000  0.31170000  0.87070000  1
  H  H66  1  0.35640000  0.75470000  0.74370000  1
  H  H67  1  0.10580000  0.65200000  0.65200000  1
  H  H68  1  0.02010000  0.79980000  0.56490000  1
  H  H69  1  0.23320000  0.98510000  0.60270000  1
  H  H70  1  0.43030000  0.94670000  0.70140000  1
  H  H71  1  0.21540000  0.51260000  0.53680000  1
  H  H72  1  0.06260000  0.46390000  0.30950000  1
  H  H73  1  0.18190000  0.61690000  0.24900000  1
  H  H74  1  0.42050000  0.78100000  0.44310000  1
  H  H75  1  0.44100000  0.71830000  0.62930000  1
  H  H76  1  0.98900000  0.88730000  0.24370000  1
  H  H77  1  0.00000000  0.04620000  0.15200000  1
  H  H78  1  0.76510000  0.04480000  0.06490000  1
  H  H79  1  0.61760000  0.86950000  0.10270000  1
  H  H80  1  0.75470000  0.77110000  0.20140000  1
  H  H81  1  0.02420000  0.82140000  0.03680000  1
  H  H82  1  0.84560000  0.74690000  0.80950000  1
  H  H83  1  0.63210000  0.56710000  0.74900000  1
  H  H84  1  0.66210000  0.52260000  0.94310000  1
  H  H85  1  0.91100000  0.68830000  0.12930000  1
  H  H86  1  0.64360000  0.24530000  0.25630000  1
  H  H87  1  0.89420000  0.34800000  0.34800000  1
  H  H88  1  0.97990000  0.20020000  0.43510000  1
  H  H89  1  0.76680000  0.01490000  0.39730000  1
  H  H90  1  0.56970000  0.05330000  0.29860000  1
  H  H91  1  0.78460000  0.48740000  0.46320000  1
  H  H92  1  0.93740000  0.53610000  0.69050000  1
  H  H93  1  0.81810000  0.38310000  0.75100000  1
  H  H94  1  0.57950000  0.21900000  0.55690000  1
  H  H95  1  0.55900000  0.28170000  0.37070000  1
  O  O96  1  0.16220000  0.07110000  0.09470000  1
  O  O97  1  0.37340000  0.16780000  0.18100000  1
  O  O98  1  0.45010000  0.32690000  0.08920000  1
  O  O99  1  0.50160000  0.37500000  0.96140000  1
  O  O100  1  0.23770000  0.86090000  0.41080000  1
  O  O101  1  0.41360000  0.04020000  0.53860000  1
  O  O102  1  0.97640000  0.56750000  0.40530000  1
  O  O103  1  0.98680000  0.69240000  0.31900000  1
  O  O104  1  0.83780000  0.92890000  0.90530000  1
  O  O105  1  0.62660000  0.83220000  0.81900000  1
  O  O106  1  0.54990000  0.67310000  0.91080000  1
  O  O107  1  0.49840000  0.62500000  0.03860000  1
  O  O108  1  0.76230000  0.13910000  0.58920000  1
  O  O109  1  0.58640000  0.95980000  0.46140000  1
  O  O110  1  0.02360000  0.43250000  0.59470000  1
  O  O111  1  0.01320000  0.30760000  0.68100000  1
  Zr  Zr112  1  0.25110000  0.20470000  0.02340000  1
  Zr  Zr113  1  0.18130000  0.72770000  0.47660000  1
  Zr  Zr114  1  0.74890000  0.79530000  0.97660000  1
  Zr  Zr115  1  0.81870000  0.27230000  0.52340000  1
