# generated using pymatgen
data_Zr3H26(C5O2)7
_symmetry_space_group_name_H-M   'P 1'
_cell_length_a   14.70630000
_cell_length_b   34.32580000
_cell_length_c   34.32580000
_cell_angle_alpha   90.00000000
_cell_angle_beta   90.00000000
_cell_angle_gamma   90.00000000
_symmetry_Int_Tables_number   1
_chemical_formula_structural   Zr3H26(C5O2)7
_chemical_formula_sum   'Zr24 H208 C280 O112'
_cell_volume   17327.85306235
_cell_formula_units_Z   8
loop_
 _symmetry_equiv_pos_site_id
 _symmetry_equiv_pos_as_xyz
  1  'x, y, z'
loop_
 _atom_site_type_symbol
 _atom_site_label
 _atom_site_symmetry_multiplicity
 _atom_site_fract_x
 _atom_site_fract_y
 _atom_site_fract_z
 _atom_site_occupancy
  Zr  Zr0  1  0.50000000  0.94933000  0.44933000  1
  Zr  Zr1  1  0.63671000  0.03025000  0.46975000  1
  Zr  Zr2  1  0.60063000  0.95873000  0.54127000  1
  Zr  Zr3  1  1.00000000  0.05067000  0.94933000  1
  Zr  Zr4  1  0.13671000  0.03025000  0.03025000  1
  Zr  Zr5  1  0.10063000  0.95873000  0.95873000  1
  Zr  Zr6  1  0.50000000  0.55067000  0.05067000  1
  Zr  Zr7  1  0.63671000  0.46975000  0.03025000  1
  Zr  Zr8  1  0.60063000  0.54127000  0.95873000  1
  Zr  Zr9  1  0.00000000  0.44933000  0.55067000  1
  Zr  Zr10  1  0.13671000  0.46975000  0.46975000  1
  Zr  Zr11  1  0.10063000  0.54127000  0.54127000  1
  Zr  Zr12  1  0.86329000  0.53025000  0.53025000  1
  Zr  Zr13  1  0.89937000  0.45873000  0.45873000  1
  Zr  Zr14  1  0.36329000  0.96975000  0.53025000  1
  Zr  Zr15  1  0.39937000  0.04127000  0.45873000  1
  Zr  Zr16  1  0.86329000  0.96975000  0.96975000  1
  Zr  Zr17  1  0.89937000  0.04127000  0.04127000  1
  Zr  Zr18  1  0.36329000  0.53025000  0.96975000  1
  Zr  Zr19  1  0.39937000  0.45873000  0.04127000  1
  Zr  Zr20  1  0.50000000  0.05067000  0.55067000  1
  Zr  Zr21  1  1.00000000  0.94933000  0.05067000  1
  Zr  Zr22  1  0.50000000  0.44933000  0.94933000  1
  Zr  Zr23  1  1.00000000  0.55067000  0.44933000  1
  H  H24  1  0.38450000  0.83380000  0.43100000  1
  H  H25  1  0.19930000  0.86190000  0.51450000  1
  H  H26  1  0.14500000  0.79890000  0.51310000  1
  H  H27  1  0.34320000  0.73180000  0.43010000  1
  H  H28  1  0.43030000  0.75780000  0.44040000  1
  H  H29  1  0.37660000  0.76490000  0.40050000  1
  H  H30  1  0.27340000  0.72520000  0.52700000  1
  H  H31  1  0.07830000  0.67140000  0.43360000  1
  H  H32  1  0.06550000  0.72730000  0.40100000  1
  H  H33  1  0.15140000  0.75590000  0.40030000  1
  H  H34  1  0.06690000  0.76530000  0.42810000  1
  H  H35  1  0.22780000  0.65940000  0.53090000  1
  H  H36  1  0.91330000  0.96240000  0.53760000  1
  H  H37  1  0.93630000  0.02190000  0.47810000  1
  H  H38  1  0.88450000  0.06900000  0.83380000  1
  H  H39  1  0.69930000  0.98550000  0.86190000  1
  H  H40  1  0.64500000  0.98690000  0.79890000  1
  H  H41  1  0.84320000  0.06990000  0.73180000  1
  H  H42  1  0.93030000  0.05960000  0.75780000  1
  H  H43  1  0.87660000  0.09950000  0.76490000  1
  H  H44  1  0.77340000  0.97300000  0.72520000  1
  H  H45  1  0.57830000  0.06640000  0.67140000  1
  H  H46  1  0.56550000  0.09900000  0.72730000  1
  H  H47  1  0.65140000  0.09970000  0.75590000  1
  H  H48  1  0.56690000  0.07190000  0.76530000  1
  H  H49  1  0.72780000  0.96910000  0.65940000  1
  H  H50  1  0.41330000  0.96240000  0.96240000  1
  H  H51  1  0.43630000  0.02190000  0.02190000  1
  H  H52  1  0.38450000  0.66620000  0.06900000  1
  H  H53  1  0.19930000  0.63810000  0.98550000  1
  H  H54  1  0.14500000  0.70110000  0.98690000  1
  H  H55  1  0.34320000  0.76820000  0.06990000  1
  H  H56  1  0.43030000  0.74220000  0.05960000  1
  H  H57  1  0.37660000  0.73510000  0.09950000  1
  H  H58  1  0.27340000  0.77480000  0.97300000  1
  H  H59  1  0.07830000  0.82860000  0.06640000  1
  H  H60  1  0.06550000  0.77270000  0.09900000  1
  H  H61  1  0.15140000  0.74410000  0.09970000  1
  H  H62  1  0.06690000  0.73470000  0.07190000  1
  H  H63  1  0.22780000  0.84060000  0.96910000  1
  H  H64  1  0.91330000  0.53760000  0.96240000  1
  H  H65  1  0.93630000  0.47810000  0.02190000  1
  H  H66  1  0.88450000  0.43100000  0.66620000  1
  H  H67  1  0.69930000  0.51450000  0.63810000  1
  H  H68  1  0.64500000  0.51310000  0.70110000  1
  H  H69  1  0.84320000  0.43010000  0.76820000  1
  H  H70  1  0.93030000  0.44040000  0.74220000  1
  H  H71  1  0.87660000  0.40050000  0.73510000  1
  H  H72  1  0.77340000  0.52700000  0.77480000  1
  H  H73  1  0.57830000  0.43360000  0.82860000  1
  H  H74  1  0.56550000  0.40100000  0.77270000  1
  H  H75  1  0.65140000  0.40030000  0.74410000  1
  H  H76  1  0.56690000  0.42810000  0.73470000  1
  H  H77  1  0.72780000  0.53090000  0.84060000  1
  H  H78  1  0.41330000  0.53760000  0.53760000  1
  H  H79  1  0.43630000  0.47810000  0.47810000  1
  H  H80  1  0.11550000  0.33380000  0.56900000  1
  H  H81  1  0.30070000  0.36190000  0.48550000  1
  H  H82  1  0.35500000  0.29890000  0.48690000  1
  H  H83  1  0.15680000  0.23180000  0.56990000  1
  H  H84  1  0.06970000  0.25780000  0.55960000  1
  H  H85  1  0.12340000  0.26490000  0.59950000  1
  H  H86  1  0.22660000  0.22520000  0.47300000  1
  H  H87  1  0.42170000  0.17140000  0.56640000  1
  H  H88  1  0.43450000  0.22730000  0.59900000  1
  H  H89  1  0.34860000  0.25590000  0.59970000  1
  H  H90  1  0.43310000  0.26530000  0.57190000  1
  H  H91  1  0.27220000  0.15940000  0.46910000  1
  H  H92  1  0.58670000  0.46240000  0.46240000  1
  H  H93  1  0.56370000  0.52190000  0.52190000  1
  H  H94  1  0.61550000  0.93100000  0.33380000  1
  H  H95  1  0.80070000  0.01450000  0.36190000  1
  H  H96  1  0.85500000  0.01310000  0.29890000  1
  H  H97  1  0.65680000  0.93010000  0.23180000  1
  H  H98  1  0.56970000  0.94040000  0.25780000  1
  H  H99  1  0.62340000  0.90050000  0.26490000  1
  H  H100  1  0.72660000  0.02700000  0.22520000  1
  H  H101  1  0.92170000  0.93360000  0.17140000  1
  H  H102  1  0.93450000  0.90100000  0.22730000  1
  H  H103  1  0.84860000  0.90030000  0.25590000  1
  H  H104  1  0.93310000  0.92810000  0.26530000  1
  H  H105  1  0.77220000  0.03090000  0.15940000  1
  H  H106  1  0.08670000  0.03760000  0.46240000  1
  H  H107  1  0.06370000  0.97810000  0.52190000  1
  H  H108  1  0.11550000  0.16620000  0.93100000  1
  H  H109  1  0.30070000  0.13810000  0.01450000  1
  H  H110  1  0.35500000  0.20110000  0.01310000  1
  H  H111  1  0.15680000  0.26820000  0.93010000  1
  H  H112  1  0.06970000  0.24220000  0.94040000  1
  H  H113  1  0.12340000  0.23510000  0.90050000  1
  H  H114  1  0.22660000  0.27480000  0.02700000  1
  H  H115  1  0.42170000  0.32860000  0.93360000  1
  H  H116  1  0.43450000  0.27270000  0.90100000  1
  H  H117  1  0.34860000  0.24410000  0.90030000  1
  H  H118  1  0.43310000  0.23470000  0.92810000  1
  H  H119  1  0.27220000  0.34060000  0.03090000  1
  H  H120  1  0.58670000  0.03760000  0.03760000  1
  H  H121  1  0.56370000  0.97810000  0.97810000  1
  H  H122  1  0.61550000  0.56900000  0.16620000  1
  H  H123  1  0.80070000  0.48550000  0.13810000  1
  H  H124  1  0.85500000  0.48690000  0.20110000  1
  H  H125  1  0.65680000  0.56990000  0.26820000  1
  H  H126  1  0.56970000  0.55960000  0.24220000  1
  H  H127  1  0.62340000  0.59950000  0.23510000  1
  H  H128  1  0.72660000  0.47300000  0.27480000  1
  H  H129  1  0.92170000  0.56640000  0.32860000  1
  H  H130  1  0.93450000  0.59900000  0.27270000  1
  H  H131  1  0.84860000  0.59970000  0.24410000  1
  H  H132  1  0.93310000  0.57190000  0.23470000  1
  H  H133  1  0.77220000  0.46910000  0.34060000  1
  H  H134  1  0.08670000  0.46240000  0.03760000  1
  H  H135  1  0.06370000  0.52190000  0.97810000  1
  H  H136  1  0.61550000  0.16620000  0.56900000  1
  H  H137  1  0.80070000  0.13810000  0.48550000  1
  H  H138  1  0.85500000  0.20110000  0.48690000  1
  H  H139  1  0.65680000  0.26820000  0.56990000  1
  H  H140  1  0.56970000  0.24220000  0.55960000  1
  H  H141  1  0.62340000  0.23510000  0.59950000  1
  H  H142  1  0.72660000  0.27480000  0.47300000  1
  H  H143  1  0.92170000  0.32860000  0.56640000  1
  H  H144  1  0.93450000  0.27270000  0.59900000  1
  H  H145  1  0.84860000  0.24410000  0.59970000  1
  H  H146  1  0.93310000  0.23470000  0.57190000  1
  H  H147  1  0.77220000  0.34060000  0.46910000  1
  H  H148  1  0.11550000  0.93100000  0.16620000  1
  H  H149  1  0.30070000  0.01450000  0.13810000  1
  H  H150  1  0.35500000  0.01310000  0.20110000  1
  H  H151  1  0.15680000  0.93010000  0.26820000  1
  H  H152  1  0.06970000  0.94040000  0.24220000  1
  H  H153  1  0.12340000  0.90050000  0.23510000  1
  H  H154  1  0.22660000  0.02700000  0.27480000  1
  H  H155  1  0.42170000  0.93360000  0.32860000  1
  H  H156  1  0.43450000  0.90100000  0.27270000  1
  H  H157  1  0.34860000  0.90030000  0.24410000  1
  H  H158  1  0.43310000  0.92810000  0.23470000  1
  H  H159  1  0.27220000  0.03090000  0.34060000  1
  H  H160  1  0.61550000  0.33380000  0.93100000  1
  H  H161  1  0.80070000  0.36190000  0.01450000  1
  H  H162  1  0.85500000  0.29890000  0.01310000  1
  H  H163  1  0.65680000  0.23180000  0.93010000  1
  H  H164  1  0.56970000  0.25780000  0.94040000  1
  H  H165  1  0.62340000  0.26490000  0.90050000  1
  H  H166  1  0.72660000  0.22520000  0.02700000  1
  H  H167  1  0.92170000  0.17140000  0.93360000  1
  H  H168  1  0.93450000  0.22730000  0.90100000  1
  H  H169  1  0.84860000  0.25590000  0.90030000  1
  H  H170  1  0.93310000  0.26530000  0.92810000  1
  H  H171  1  0.77220000  0.15940000  0.03090000  1
  H  H172  1  0.11550000  0.56900000  0.33380000  1
  H  H173  1  0.30070000  0.48550000  0.36190000  1
  H  H174  1  0.35500000  0.48690000  0.29890000  1
  H  H175  1  0.15680000  0.56990000  0.23180000  1
  H  H176  1  0.06970000  0.55960000  0.25780000  1
  H  H177  1  0.12340000  0.59950000  0.26490000  1
  H  H178  1  0.22660000  0.47300000  0.22520000  1
  H  H179  1  0.42170000  0.56640000  0.17140000  1
  H  H180  1  0.43450000  0.59900000  0.22730000  1
  H  H181  1  0.34860000  0.59970000  0.25590000  1
  H  H182  1  0.43310000  0.57190000  0.26530000  1
  H  H183  1  0.27220000  0.46910000  0.15940000  1
  H  H184  1  0.88450000  0.66620000  0.43100000  1
  H  H185  1  0.69930000  0.63810000  0.51450000  1
  H  H186  1  0.64500000  0.70110000  0.51310000  1
  H  H187  1  0.84320000  0.76820000  0.43010000  1
  H  H188  1  0.93030000  0.74220000  0.44040000  1
  H  H189  1  0.87660000  0.73510000  0.40050000  1
  H  H190  1  0.77340000  0.77480000  0.52700000  1
  H  H191  1  0.57830000  0.82860000  0.43360000  1
  H  H192  1  0.56550000  0.77270000  0.40100000  1
  H  H193  1  0.65140000  0.74410000  0.40030000  1
  H  H194  1  0.56690000  0.73470000  0.42810000  1
  H  H195  1  0.72780000  0.84060000  0.53090000  1
  H  H196  1  0.38450000  0.06900000  0.66620000  1
  H  H197  1  0.19930000  0.98550000  0.63810000  1
  H  H198  1  0.14500000  0.98690000  0.70110000  1
  H  H199  1  0.34320000  0.06990000  0.76820000  1
  H  H200  1  0.43030000  0.05960000  0.74220000  1
  H  H201  1  0.37660000  0.09950000  0.73510000  1
  H  H202  1  0.27340000  0.97300000  0.77480000  1
  H  H203  1  0.07830000  0.06640000  0.82860000  1
  H  H204  1  0.06550000  0.09900000  0.77270000  1
  H  H205  1  0.15140000  0.09970000  0.74410000  1
  H  H206  1  0.06690000  0.07190000  0.73470000  1
  H  H207  1  0.22780000  0.96910000  0.84060000  1
  H  H208  1  0.88450000  0.83380000  0.06900000  1
  H  H209  1  0.69930000  0.86190000  0.98550000  1
  H  H210  1  0.64500000  0.79890000  0.98690000  1
  H  H211  1  0.84320000  0.73180000  0.06990000  1
  H  H212  1  0.93030000  0.75780000  0.05960000  1
  H  H213  1  0.87660000  0.76490000  0.09950000  1
  H  H214  1  0.77340000  0.72520000  0.97300000  1
  H  H215  1  0.57830000  0.67140000  0.06640000  1
  H  H216  1  0.56550000  0.72730000  0.09900000  1
  H  H217  1  0.65140000  0.75590000  0.09970000  1
  H  H218  1  0.56690000  0.76530000  0.07190000  1
  H  H219  1  0.72780000  0.65940000  0.96910000  1
  H  H220  1  0.38450000  0.43100000  0.83380000  1
  H  H221  1  0.19930000  0.51450000  0.86190000  1
  H  H222  1  0.14500000  0.51310000  0.79890000  1
  H  H223  1  0.34320000  0.43010000  0.73180000  1
  H  H224  1  0.43030000  0.44040000  0.75780000  1
  H  H225  1  0.37660000  0.40050000  0.76490000  1
  H  H226  1  0.27340000  0.52700000  0.72520000  1
  H  H227  1  0.07830000  0.43360000  0.67140000  1
  H  H228  1  0.06550000  0.40100000  0.72730000  1
  H  H229  1  0.15140000  0.40030000  0.75590000  1
  H  H230  1  0.06690000  0.42810000  0.76530000  1
  H  H231  1  0.22780000  0.53090000  0.65940000  1
  C  C232  1  0.33910000  0.89360000  0.47410000  1
  C  C233  1  0.29920000  0.85390000  0.47290000  1
  C  C234  1  0.33720000  0.82650000  0.44840000  1
  C  C235  1  0.22640000  0.84320000  0.49780000  1
  C  C236  1  0.30660000  0.78860000  0.44920000  1
  C  C237  1  0.19570000  0.80570000  0.49740000  1
  C  C238  1  0.23620000  0.77740000  0.47480000  1
  C  C239  1  0.37030000  0.75780000  0.42800000  1
  C  C240  1  0.20540000  0.73580000  0.47630000  1
  C  C241  1  0.14780000  0.72120000  0.44900000  1
  C  C242  1  0.23530000  0.71410000  0.50760000  1
  C  C243  1  0.11950000  0.68200000  0.45210000  1
  C  C244  1  0.10410000  0.74450000  0.41680000  1
  C  C245  1  0.20770000  0.67510000  0.50980000  1
  C  C246  1  0.15190000  0.65930000  0.48200000  1
  C  C247  1  0.12240000  0.61770000  0.48620000  1
  C  C248  1  0.79370000  0.98850000  0.51150000  1
  C  C249  1  0.89350000  0.98100000  0.51900000  1
  C  C250  1  0.95610000  0.00320000  0.49680000  1
  C  C251  1  0.83910000  0.02590000  0.89360000  1
  C  C252  1  0.79920000  0.02710000  0.85390000  1
  C  C253  1  0.83720000  0.05160000  0.82650000  1
  C  C254  1  0.72640000  0.00220000  0.84320000  1
  C  C255  1  0.80660000  0.05080000  0.78860000  1
  C  C256  1  0.69570000  0.00260000  0.80570000  1
  C  C257  1  0.73620000  0.02520000  0.77740000  1
  C  C258  1  0.87030000  0.07200000  0.75780000  1
  C  C259  1  0.70540000  0.02370000  0.73580000  1
  C  C260  1  0.64780000  0.05100000  0.72120000  1
  C  C261  1  0.73530000  0.99240000  0.71410000  1
  C  C262  1  0.61950000  0.04790000  0.68200000  1
  C  C263  1  0.60410000  0.08320000  0.74450000  1
  C  C264  1  0.70770000  0.99020000  0.67510000  1
  C  C265  1  0.65190000  0.01800000  0.65930000  1
  C  C266  1  0.62240000  0.01380000  0.61770000  1
  C  C267  1  0.29370000  0.98850000  0.98850000  1
  C  C268  1  0.39350000  0.98100000  0.98100000  1
  C  C269  1  0.45610000  0.00320000  0.00320000  1
  C  C270  1  0.33910000  0.60640000  0.02590000  1
  C  C271  1  0.29920000  0.64610000  0.02710000  1
  C  C272  1  0.33720000  0.67350000  0.05160000  1
  C  C273  1  0.22640000  0.65680000  0.00220000  1
  C  C274  1  0.30660000  0.71140000  0.05080000  1
  C  C275  1  0.19570000  0.69430000  0.00260000  1
  C  C276  1  0.23620000  0.72260000  0.02520000  1
  C  C277  1  0.37030000  0.74220000  0.07200000  1
  C  C278  1  0.20540000  0.76420000  0.02370000  1
  C  C279  1  0.14780000  0.77880000  0.05100000  1
  C  C280  1  0.23530000  0.78590000  0.99240000  1
  C  C281  1  0.11950000  0.81800000  0.04790000  1
  C  C282  1  0.10410000  0.75550000  0.08320000  1
  C  C283  1  0.20770000  0.82490000  0.99020000  1
  C  C284  1  0.15190000  0.84070000  0.01800000  1
  C  C285  1  0.12240000  0.88230000  0.01380000  1
  C  C286  1  0.79370000  0.51150000  0.98850000  1
  C  C287  1  0.89350000  0.51900000  0.98100000  1
  C  C288  1  0.95610000  0.49680000  0.00320000  1
  C  C289  1  0.83910000  0.47410000  0.60640000  1
  C  C290  1  0.79920000  0.47290000  0.64610000  1
  C  C291  1  0.83720000  0.44840000  0.67350000  1
  C  C292  1  0.72640000  0.49780000  0.65680000  1
  C  C293  1  0.80660000  0.44920000  0.71140000  1
  C  C294  1  0.69570000  0.49740000  0.69430000  1
  C  C295  1  0.73620000  0.47480000  0.72260000  1
  C  C296  1  0.87030000  0.42800000  0.74220000  1
  C  C297  1  0.70540000  0.47630000  0.76420000  1
  C  C298  1  0.64780000  0.44900000  0.77880000  1
  C  C299  1  0.73530000  0.50760000  0.78590000  1
  C  C300  1  0.61950000  0.45210000  0.81800000  1
  C  C301  1  0.60410000  0.41680000  0.75550000  1
  C  C302  1  0.70770000  0.50980000  0.82490000  1
  C  C303  1  0.65190000  0.48200000  0.84070000  1
  C  C304  1  0.62240000  0.48620000  0.88230000  1
  C  C305  1  0.29370000  0.51150000  0.51150000  1
  C  C306  1  0.39350000  0.51900000  0.51900000  1
  C  C307  1  0.45610000  0.49680000  0.49680000  1
  C  C308  1  0.16090000  0.39360000  0.52590000  1
  C  C309  1  0.20080000  0.35390000  0.52710000  1
  C  C310  1  0.16280000  0.32650000  0.55160000  1
  C  C311  1  0.27360000  0.34320000  0.50220000  1
  C  C312  1  0.19340000  0.28860000  0.55080000  1
  C  C313  1  0.30430000  0.30570000  0.50260000  1
  C  C314  1  0.26380000  0.27740000  0.52520000  1
  C  C315  1  0.12970000  0.25780000  0.57200000  1
  C  C316  1  0.29460000  0.23580000  0.52370000  1
  C  C317  1  0.35220000  0.22120000  0.55100000  1
  C  C318  1  0.26470000  0.21410000  0.49240000  1
  C  C319  1  0.38050000  0.18200000  0.54790000  1
  C  C320  1  0.39590000  0.24450000  0.58320000  1
  C  C321  1  0.29230000  0.17510000  0.49020000  1
  C  C322  1  0.34810000  0.15930000  0.51800000  1
  C  C323  1  0.37760000  0.11770000  0.51380000  1
  C  C324  1  0.70630000  0.48850000  0.48850000  1
  C  C325  1  0.60650000  0.48100000  0.48100000  1
  C  C326  1  0.54390000  0.50320000  0.50320000  1
  C  C327  1  0.66090000  0.97410000  0.39360000  1
  C  C328  1  0.70080000  0.97290000  0.35390000  1
  C  C329  1  0.66280000  0.94840000  0.32650000  1
  C  C330  1  0.77360000  0.99780000  0.34320000  1
  C  C331  1  0.69340000  0.94920000  0.28860000  1
  C  C332  1  0.80430000  0.99740000  0.30570000  1
  C  C333  1  0.76380000  0.97480000  0.27740000  1
  C  C334  1  0.62970000  0.92800000  0.25780000  1
  C  C335  1  0.79460000  0.97630000  0.23580000  1
  C  C336  1  0.85220000  0.94900000  0.22120000  1
  C  C337  1  0.76470000  0.00760000  0.21410000  1
  C  C338  1  0.88050000  0.95210000  0.18200000  1
  C  C339  1  0.89590000  0.91680000  0.24450000  1
  C  C340  1  0.79230000  0.00980000  0.17510000  1
  C  C341  1  0.84810000  0.98200000  0.15930000  1
  C  C342  1  0.87760000  0.98620000  0.11770000  1
  C  C343  1  0.20630000  0.01150000  0.48850000  1
  C  C344  1  0.10650000  0.01900000  0.48100000  1
  C  C345  1  0.04390000  0.99680000  0.50320000  1
  C  C346  1  0.16090000  0.10640000  0.97410000  1
  C  C347  1  0.20080000  0.14610000  0.97290000  1
  C  C348  1  0.16280000  0.17350000  0.94840000  1
  C  C349  1  0.27360000  0.15680000  0.99780000  1
  C  C350  1  0.19340000  0.21140000  0.94920000  1
  C  C351  1  0.30430000  0.19430000  0.99740000  1
  C  C352  1  0.26380000  0.22260000  0.97480000  1
  C  C353  1  0.12970000  0.24220000  0.92800000  1
  C  C354  1  0.29460000  0.26420000  0.97630000  1
  C  C355  1  0.35220000  0.27880000  0.94900000  1
  C  C356  1  0.26470000  0.28590000  0.00760000  1
  C  C357  1  0.38050000  0.31800000  0.95210000  1
  C  C358  1  0.39590000  0.25550000  0.91680000  1
  C  C359  1  0.29230000  0.32490000  0.00980000  1
  C  C360  1  0.34810000  0.34070000  0.98200000  1
  C  C361  1  0.37760000  0.38230000  0.98620000  1
  C  C362  1  0.70630000  0.01150000  0.01150000  1
  C  C363  1  0.60650000  0.01900000  0.01900000  1
  C  C364  1  0.54390000  0.99680000  0.99680000  1
  C  C365  1  0.66090000  0.52590000  0.10640000  1
  C  C366  1  0.70080000  0.52710000  0.14610000  1
  C  C367  1  0.66280000  0.55160000  0.17350000  1
  C  C368  1  0.77360000  0.50220000  0.15680000  1
  C  C369  1  0.69340000  0.55080000  0.21140000  1
  C  C370  1  0.80430000  0.50260000  0.19430000  1
  C  C371  1  0.76380000  0.52520000  0.22260000  1
  C  C372  1  0.62970000  0.57200000  0.24220000  1
  C  C373  1  0.79460000  0.52370000  0.26420000  1
  C  C374  1  0.85220000  0.55100000  0.27880000  1
  C  C375  1  0.76470000  0.49240000  0.28590000  1
  C  C376  1  0.88050000  0.54790000  0.31800000  1
  C  C377  1  0.89590000  0.58320000  0.25550000  1
  C  C378  1  0.79230000  0.49020000  0.32490000  1
  C  C379  1  0.84810000  0.51800000  0.34070000  1
  C  C380  1  0.87760000  0.51380000  0.38230000  1
  C  C381  1  0.20630000  0.48850000  0.01150000  1
  C  C382  1  0.10650000  0.48100000  0.01900000  1
  C  C383  1  0.04390000  0.50320000  0.99680000  1
  C  C384  1  0.66090000  0.10640000  0.52590000  1
  C  C385  1  0.70080000  0.14610000  0.52710000  1
  C  C386  1  0.66280000  0.17350000  0.55160000  1
  C  C387  1  0.77360000  0.15680000  0.50220000  1
  C  C388  1  0.69340000  0.21140000  0.55080000  1
  C  C389  1  0.80430000  0.19430000  0.50260000  1
  C  C390  1  0.76380000  0.22260000  0.52520000  1
  C  C391  1  0.62970000  0.24220000  0.57200000  1
  C  C392  1  0.79460000  0.26420000  0.52370000  1
  C  C393  1  0.85220000  0.27880000  0.55100000  1
  C  C394  1  0.76470000  0.28590000  0.49240000  1
  C  C395  1  0.88050000  0.31800000  0.54790000  1
  C  C396  1  0.89590000  0.25550000  0.58320000  1
  C  C397  1  0.79230000  0.32490000  0.49020000  1
  C  C398  1  0.84810000  0.34070000  0.51800000  1
  C  C399  1  0.87760000  0.38230000  0.51380000  1
  C  C400  1  0.16090000  0.97410000  0.10640000  1
  C  C401  1  0.20080000  0.97290000  0.14610000  1
  C  C402  1  0.16280000  0.94840000  0.17350000  1
  C  C403  1  0.27360000  0.99780000  0.15680000  1
  C  C404  1  0.19340000  0.94920000  0.21140000  1
  C  C405  1  0.30430000  0.99740000  0.19430000  1
  C  C406  1  0.26380000  0.97480000  0.22260000  1
  C  C407  1  0.12970000  0.92800000  0.24220000  1
  C  C408  1  0.29460000  0.97630000  0.26420000  1
  C  C409  1  0.35220000  0.94900000  0.27880000  1
  C  C410  1  0.26470000  0.00760000  0.28590000  1
  C  C411  1  0.38050000  0.95210000  0.31800000  1
  C  C412  1  0.39590000  0.91680000  0.25550000  1
  C  C413  1  0.29230000  0.00980000  0.32490000  1
  C  C414  1  0.34810000  0.98200000  0.34070000  1
  C  C415  1  0.37760000  0.98620000  0.38230000  1
  C  C416  1  0.66090000  0.39360000  0.97410000  1
  C  C417  1  0.70080000  0.35390000  0.97290000  1
  C  C418  1  0.66280000  0.32650000  0.94840000  1
  C  C419  1  0.77360000  0.34320000  0.99780000  1
  C  C420  1  0.69340000  0.28860000  0.94920000  1
  C  C421  1  0.80430000  0.30570000  0.99740000  1
  C  C422  1  0.76380000  0.27740000  0.97480000  1
  C  C423  1  0.62970000  0.25780000  0.92800000  1
  C  C424  1  0.79460000  0.23580000  0.97630000  1
  C  C425  1  0.85220000  0.22120000  0.94900000  1
  C  C426  1  0.76470000  0.21410000  0.00760000  1
  C  C427  1  0.88050000  0.18200000  0.95210000  1
  C  C428  1  0.89590000  0.24450000  0.91680000  1
  C  C429  1  0.79230000  0.17510000  0.00980000  1
  C  C430  1  0.84810000  0.15930000  0.98200000  1
  C  C431  1  0.87760000  0.11770000  0.98620000  1
  C  C432  1  0.16090000  0.52590000  0.39360000  1
  C  C433  1  0.20080000  0.52710000  0.35390000  1
  C  C434  1  0.16280000  0.55160000  0.32650000  1
  C  C435  1  0.27360000  0.50220000  0.34320000  1
  C  C436  1  0.19340000  0.55080000  0.28860000  1
  C  C437  1  0.30430000  0.50260000  0.30570000  1
  C  C438  1  0.26380000  0.52520000  0.27740000  1
  C  C439  1  0.12970000  0.57200000  0.25780000  1
  C  C440  1  0.29460000  0.52370000  0.23580000  1
  C  C441  1  0.35220000  0.55100000  0.22120000  1
  C  C442  1  0.26470000  0.49240000  0.21410000  1
  C  C443  1  0.38050000  0.54790000  0.18200000  1
  C  C444  1  0.39590000  0.58320000  0.24450000  1
  C  C445  1  0.29230000  0.49020000  0.17510000  1
  C  C446  1  0.34810000  0.51800000  0.15930000  1
  C  C447  1  0.37760000  0.51380000  0.11770000  1
  C  C448  1  0.83910000  0.60640000  0.47410000  1
  C  C449  1  0.79920000  0.64610000  0.47290000  1
  C  C450  1  0.83720000  0.67350000  0.44840000  1
  C  C451  1  0.72640000  0.65680000  0.49780000  1
  C  C452  1  0.80660000  0.71140000  0.44920000  1
  C  C453  1  0.69570000  0.69430000  0.49740000  1
  C  C454  1  0.73620000  0.72260000  0.47480000  1
  C  C455  1  0.87030000  0.74220000  0.42800000  1
  C  C456  1  0.70540000  0.76420000  0.47630000  1
  C  C457  1  0.64780000  0.77880000  0.44900000  1
  C  C458  1  0.73530000  0.78590000  0.50760000  1
  C  C459  1  0.61950000  0.81800000  0.45210000  1
  C  C460  1  0.60410000  0.75550000  0.41680000  1
  C  C461  1  0.70770000  0.82490000  0.50980000  1
  C  C462  1  0.65190000  0.84070000  0.48200000  1
  C  C463  1  0.62240000  0.88230000  0.48620000  1
  C  C464  1  0.33910000  0.02590000  0.60640000  1
  C  C465  1  0.29920000  0.02710000  0.64610000  1
  C  C466  1  0.33720000  0.05160000  0.67350000  1
  C  C467  1  0.22640000  0.00220000  0.65680000  1
  C  C468  1  0.30660000  0.05080000  0.71140000  1
  C  C469  1  0.19570000  0.00260000  0.69430000  1
  C  C470  1  0.23620000  0.02520000  0.72260000  1
  C  C471  1  0.37030000  0.07200000  0.74220000  1
  C  C472  1  0.20540000  0.02370000  0.76420000  1
  C  C473  1  0.14780000  0.05100000  0.77880000  1
  C  C474  1  0.23530000  0.99240000  0.78590000  1
  C  C475  1  0.11950000  0.04790000  0.81800000  1
  C  C476  1  0.10410000  0.08320000  0.75550000  1
  C  C477  1  0.20770000  0.99020000  0.82490000  1
  C  C478  1  0.15190000  0.01800000  0.84070000  1
  C  C479  1  0.12240000  0.01380000  0.88230000  1
  C  C480  1  0.83910000  0.89360000  0.02590000  1
  C  C481  1  0.79920000  0.85390000  0.02710000  1
  C  C482  1  0.83720000  0.82650000  0.05160000  1
  C  C483  1  0.72640000  0.84320000  0.00220000  1
  C  C484  1  0.80660000  0.78860000  0.05080000  1
  C  C485  1  0.69570000  0.80570000  0.00260000  1
  C  C486  1  0.73620000  0.77740000  0.02520000  1
  C  C487  1  0.87030000  0.75780000  0.07200000  1
  C  C488  1  0.70540000  0.73580000  0.02370000  1
  C  C489  1  0.64780000  0.72120000  0.05100000  1
  C  C490  1  0.73530000  0.71410000  0.99240000  1
  C  C491  1  0.61950000  0.68200000  0.04790000  1
  C  C492  1  0.60410000  0.74450000  0.08320000  1
  C  C493  1  0.70770000  0.67510000  0.99020000  1
  C  C494  1  0.65190000  0.65930000  0.01800000  1
  C  C495  1  0.62240000  0.61770000  0.01380000  1
  C  C496  1  0.33910000  0.47410000  0.89360000  1
  C  C497  1  0.29920000  0.47290000  0.85390000  1
  C  C498  1  0.33720000  0.44840000  0.82650000  1
  C  C499  1  0.22640000  0.49780000  0.84320000  1
  C  C500  1  0.30660000  0.44920000  0.78860000  1
  C  C501  1  0.19570000  0.49740000  0.80570000  1
  C  C502  1  0.23620000  0.47480000  0.77740000  1
  C  C503  1  0.37030000  0.42800000  0.75780000  1
  C  C504  1  0.20540000  0.47630000  0.73580000  1
  C  C505  1  0.14780000  0.44900000  0.72120000  1
  C  C506  1  0.23530000  0.50760000  0.71410000  1
  C  C507  1  0.11950000  0.45210000  0.68200000  1
  C  C508  1  0.10410000  0.41680000  0.74450000  1
  C  C509  1  0.20770000  0.50980000  0.67510000  1
  C  C510  1  0.15190000  0.48200000  0.65930000  1
  C  C511  1  0.12240000  0.48620000  0.61770000  1
  O  O512  1  0.61750000  0.96936000  0.48000000  1
  O  O513  1  0.51870000  0.01192000  0.43860000  1
  O  O514  1  0.39690000  0.90300000  0.44972000  1
  O  O515  1  0.42460000  0.95771000  0.39500000  1
  O  O516  1  0.69120000  0.00197000  0.41561000  1
  O  O517  1  0.64200000  0.98340000  0.59970000  1
  O  O518  1  0.77390000  0.01680000  0.48320000  1
  O  O519  1  0.74870000  0.96000000  0.54000000  1
  O  O520  1  0.11750000  0.02000000  0.96936000  1
  O  O521  1  0.01870000  0.06140000  0.01192000  1
  O  O522  1  0.89690000  0.05028000  0.90300000  1
  O  O523  1  0.92460000  0.10500000  0.95771000  1
  O  O524  1  0.19120000  0.08439000  0.00197000  1
  O  O525  1  0.14200000  0.90030000  0.98340000  1
  O  O526  1  0.27390000  0.01680000  0.01680000  1
  O  O527  1  0.24870000  0.96000000  0.96000000  1
  O  O528  1  0.61750000  0.53064000  0.02000000  1
  O  O529  1  0.51870000  0.48808000  0.06140000  1
  O  O530  1  0.39690000  0.59700000  0.05028000  1
  O  O531  1  0.42460000  0.54229000  0.10500000  1
  O  O532  1  0.69120000  0.49803000  0.08439000  1
  O  O533  1  0.64200000  0.51660000  0.90030000  1
  O  O534  1  0.77390000  0.48320000  0.01680000  1
  O  O535  1  0.74870000  0.54000000  0.96000000  1
  O  O536  1  0.11750000  0.48000000  0.53064000  1
  O  O537  1  0.01870000  0.43860000  0.48808000  1
  O  O538  1  0.89690000  0.44972000  0.59700000  1
  O  O539  1  0.92460000  0.39500000  0.54229000  1
  O  O540  1  0.19120000  0.41561000  0.49803000  1
  O  O541  1  0.14200000  0.59970000  0.51660000  1
  O  O542  1  0.27390000  0.48320000  0.48320000  1
  O  O543  1  0.24870000  0.54000000  0.54000000  1
  O  O544  1  0.88250000  0.46936000  0.52000000  1
  O  O545  1  0.98130000  0.51192000  0.56140000  1
  O  O546  1  0.10310000  0.40300000  0.55028000  1
  O  O547  1  0.07540000  0.45771000  0.60500000  1
  O  O548  1  0.80880000  0.50197000  0.58439000  1
  O  O549  1  0.85800000  0.48340000  0.40030000  1
  O  O550  1  0.72610000  0.51680000  0.51680000  1
  O  O551  1  0.75130000  0.46000000  0.46000000  1
  O  O552  1  0.38250000  0.98000000  0.46936000  1
  O  O553  1  0.48130000  0.93860000  0.51192000  1
  O  O554  1  0.60310000  0.94972000  0.40300000  1
  O  O555  1  0.57540000  0.89500000  0.45771000  1
  O  O556  1  0.30880000  0.91561000  0.50197000  1
  O  O557  1  0.35800000  0.09970000  0.48340000  1
  O  O558  1  0.22610000  0.98320000  0.51680000  1
  O  O559  1  0.25130000  0.04000000  0.46000000  1
  O  O560  1  0.88250000  0.03064000  0.98000000  1
  O  O561  1  0.98130000  0.98808000  0.93860000  1
  O  O562  1  0.10310000  0.09700000  0.94972000  1
  O  O563  1  0.07540000  0.04229000  0.89500000  1
  O  O564  1  0.80880000  0.99803000  0.91561000  1
  O  O565  1  0.85800000  0.01660000  0.09970000  1
  O  O566  1  0.72610000  0.98320000  0.98320000  1
  O  O567  1  0.75130000  0.04000000  0.04000000  1
  O  O568  1  0.38250000  0.52000000  0.03064000  1
  O  O569  1  0.48130000  0.56140000  0.98808000  1
  O  O570  1  0.60310000  0.55028000  0.09700000  1
  O  O571  1  0.57540000  0.60500000  0.04229000  1
  O  O572  1  0.30880000  0.58439000  0.99803000  1
  O  O573  1  0.35800000  0.40030000  0.01660000  1
  O  O574  1  0.22610000  0.51680000  0.98320000  1
  O  O575  1  0.25130000  0.46000000  0.04000000  1
  O  O576  1  0.38250000  0.03064000  0.52000000  1
  O  O577  1  0.48130000  0.98808000  0.56140000  1
  O  O578  1  0.60310000  0.09700000  0.55028000  1
  O  O579  1  0.57540000  0.04229000  0.60500000  1
  O  O580  1  0.30880000  0.99803000  0.58439000  1
  O  O581  1  0.35800000  0.01660000  0.40030000  1
  O  O582  1  0.88250000  0.98000000  0.03064000  1
  O  O583  1  0.98130000  0.93860000  0.98808000  1
  O  O584  1  0.10310000  0.94972000  0.09700000  1
  O  O585  1  0.07540000  0.89500000  0.04229000  1
  O  O586  1  0.80880000  0.91561000  0.99803000  1
  O  O587  1  0.85800000  0.09970000  0.01660000  1
  O  O588  1  0.38250000  0.46936000  0.98000000  1
  O  O589  1  0.48130000  0.51192000  0.93860000  1
  O  O590  1  0.60310000  0.40300000  0.94972000  1
  O  O591  1  0.57540000  0.45771000  0.89500000  1
  O  O592  1  0.30880000  0.50197000  0.91561000  1
  O  O593  1  0.35800000  0.48340000  0.09970000  1
  O  O594  1  0.88250000  0.52000000  0.46936000  1
  O  O595  1  0.98130000  0.56140000  0.51192000  1
  O  O596  1  0.10310000  0.55028000  0.40300000  1
  O  O597  1  0.07540000  0.60500000  0.45771000  1
  O  O598  1  0.80880000  0.58439000  0.50197000  1
  O  O599  1  0.85800000  0.40030000  0.48340000  1
  O  O600  1  0.11750000  0.53064000  0.48000000  1
  O  O601  1  0.01870000  0.48808000  0.43860000  1
  O  O602  1  0.89690000  0.59700000  0.44972000  1
  O  O603  1  0.92460000  0.54229000  0.39500000  1
  O  O604  1  0.19120000  0.49803000  0.41561000  1
  O  O605  1  0.14200000  0.51660000  0.59970000  1
  O  O606  1  0.61750000  0.02000000  0.53064000  1
  O  O607  1  0.51870000  0.06140000  0.48808000  1
  O  O608  1  0.39690000  0.05028000  0.59700000  1
  O  O609  1  0.42460000  0.10500000  0.54229000  1
  O  O610  1  0.69120000  0.08439000  0.49803000  1
  O  O611  1  0.64200000  0.90030000  0.51660000  1
  O  O612  1  0.11750000  0.96936000  0.02000000  1
  O  O613  1  0.01870000  0.01192000  0.06140000  1
  O  O614  1  0.89690000  0.90300000  0.05028000  1
  O  O615  1  0.92460000  0.95771000  0.10500000  1
  O  O616  1  0.19120000  0.00197000  0.08439000  1
  O  O617  1  0.14200000  0.98340000  0.90030000  1
  O  O618  1  0.61750000  0.48000000  0.96936000  1
  O  O619  1  0.51870000  0.43860000  0.01192000  1
  O  O620  1  0.39690000  0.44972000  0.90300000  1
  O  O621  1  0.42460000  0.39500000  0.95771000  1
  O  O622  1  0.69120000  0.41561000  0.00197000  1
  O  O623  1  0.64200000  0.59970000  0.98340000  1
