# generated using pymatgen
data_Zr3H27(C20O9)2
_symmetry_space_group_name_H-M   'P 1'
_cell_length_a   16.99500000
_cell_length_b   23.63700000
_cell_length_c   23.63700000
_cell_angle_alpha   90.00000000
_cell_angle_beta   90.00000000
_cell_angle_gamma   90.00000000
_symmetry_Int_Tables_number   1
_chemical_formula_structural   Zr3H27(C20O9)2
_chemical_formula_sum   'Zr12 H108 C160 O72'
_cell_volume   9495.23853416
_cell_formula_units_Z   4
loop_
 _symmetry_equiv_pos_site_id
 _symmetry_equiv_pos_as_xyz
  1  'x, y, z'
loop_
 _atom_site_type_symbol
 _atom_site_label
 _atom_site_symmetry_multiplicity
 _atom_site_fract_x
 _atom_site_fract_y
 _atom_site_fract_z
 _atom_site_occupancy
  Zr  Zr0  1  0.60331000  0.92565000  0.50000000  1
  Zr  Zr1  1  0.60331000  0.07435000  0.50000000  1
  Zr  Zr2  1  0.10331000  0.50000000  0.92565000  1
  Zr  Zr3  1  0.10331000  0.50000000  0.07435000  1
  Zr  Zr4  1  0.39669000  0.07435000  0.50000000  1
  Zr  Zr5  1  0.39669000  0.92565000  0.50000000  1
  Zr  Zr6  1  0.89669000  0.50000000  0.92565000  1
  Zr  Zr7  1  0.89669000  0.50000000  0.07435000  1
  Zr  Zr8  1  0.50000000  0.00000000  0.39596000  1
  Zr  Zr9  1  0.50000000  1.00000000  0.60404000  1
  Zr  Zr10  1  0.00000000  0.60404000  0.00000000  1
  Zr  Zr11  1  1.00000000  0.39596000  0.00000000  1
  H  H12  1  0.72450000  0.82310000  0.62280000  1
  H  H13  1  0.79260000  0.76630000  0.68930000  1
  H  H14  1  0.60240000  0.90010000  0.74530000  1
  H  H15  1  0.60170000  0.86870000  0.83590000  1
  H  H16  1  0.67350000  0.83610000  0.86510000  1
  H  H17  1  0.60660000  0.80120000  0.83270000  1
  H  H18  1  0.72450000  0.17690000  0.37720000  1
  H  H19  1  0.79260000  0.23370000  0.31070000  1
  H  H20  1  0.60240000  0.09990000  0.25470000  1
  H  H21  1  0.60170000  0.13130000  0.16410000  1
  H  H22  1  0.67350000  0.16390000  0.13490000  1
  H  H23  1  0.60660000  0.19880000  0.16730000  1
  H  H24  1  0.22450000  0.37720000  0.82310000  1
  H  H25  1  0.29260000  0.31070000  0.76630000  1
  H  H26  1  0.10240000  0.25470000  0.90010000  1
  H  H27  1  0.10170000  0.16410000  0.86870000  1
  H  H28  1  0.17350000  0.13490000  0.83610000  1
  H  H29  1  0.10660000  0.16730000  0.80120000  1
  H  H30  1  0.22450000  0.62280000  0.17690000  1
  H  H31  1  0.29260000  0.68930000  0.23370000  1
  H  H32  1  0.10240000  0.74530000  0.09990000  1
  H  H33  1  0.10170000  0.83590000  0.13130000  1
  H  H34  1  0.17350000  0.86510000  0.16390000  1
  H  H35  1  0.10660000  0.83270000  0.19880000  1
  H  H36  1  0.27550000  0.17690000  0.62280000  1
  H  H37  1  0.20740000  0.23370000  0.68930000  1
  H  H38  1  0.39760000  0.09990000  0.74530000  1
  H  H39  1  0.39830000  0.13130000  0.83590000  1
  H  H40  1  0.32650000  0.16390000  0.86510000  1
  H  H41  1  0.39340000  0.19880000  0.83270000  1
  H  H42  1  0.27550000  0.82310000  0.37720000  1
  H  H43  1  0.20740000  0.76630000  0.31070000  1
  H  H44  1  0.39760000  0.90010000  0.25470000  1
  H  H45  1  0.39830000  0.86870000  0.16410000  1
  H  H46  1  0.32650000  0.83610000  0.13490000  1
  H  H47  1  0.39340000  0.80120000  0.16730000  1
  H  H48  1  0.77550000  0.62280000  0.82310000  1
  H  H49  1  0.70740000  0.68930000  0.76630000  1
  H  H50  1  0.89760000  0.74530000  0.90010000  1
  H  H51  1  0.89830000  0.83590000  0.86870000  1
  H  H52  1  0.82650000  0.86510000  0.83610000  1
  H  H53  1  0.89340000  0.83270000  0.80120000  1
  H  H54  1  0.77550000  0.37720000  0.17690000  1
  H  H55  1  0.70740000  0.31070000  0.23370000  1
  H  H56  1  0.89760000  0.25470000  0.09990000  1
  H  H57  1  0.89830000  0.16410000  0.13130000  1
  H  H58  1  0.82650000  0.13490000  0.16390000  1
  H  H59  1  0.89340000  0.16730000  0.19880000  1
  H  H60  1  0.27550000  0.17690000  0.37720000  1
  H  H61  1  0.20740000  0.23370000  0.31070000  1
  H  H62  1  0.39760000  0.09990000  0.25470000  1
  H  H63  1  0.39830000  0.13130000  0.16410000  1
  H  H64  1  0.32650000  0.16390000  0.13490000  1
  H  H65  1  0.39340000  0.19880000  0.16730000  1
  H  H66  1  0.27550000  0.82310000  0.62280000  1
  H  H67  1  0.20740000  0.76630000  0.68930000  1
  H  H68  1  0.39760000  0.90010000  0.74530000  1
  H  H69  1  0.39830000  0.86870000  0.83590000  1
  H  H70  1  0.32650000  0.83610000  0.86510000  1
  H  H71  1  0.39340000  0.80120000  0.83270000  1
  H  H72  1  0.77550000  0.62280000  0.17690000  1
  H  H73  1  0.70740000  0.68930000  0.23370000  1
  H  H74  1  0.89760000  0.74530000  0.09990000  1
  H  H75  1  0.89830000  0.83590000  0.13130000  1
  H  H76  1  0.82650000  0.86510000  0.16390000  1
  H  H77  1  0.89340000  0.83270000  0.19880000  1
  H  H78  1  0.77550000  0.37720000  0.82310000  1
  H  H79  1  0.70740000  0.31070000  0.76630000  1
  H  H80  1  0.89760000  0.25470000  0.90010000  1
  H  H81  1  0.89830000  0.16410000  0.86870000  1
  H  H82  1  0.82650000  0.13490000  0.83610000  1
  H  H83  1  0.89340000  0.16730000  0.80120000  1
  H  H84  1  0.72450000  0.82310000  0.37720000  1
  H  H85  1  0.79260000  0.76630000  0.31070000  1
  H  H86  1  0.60240000  0.90010000  0.25470000  1
  H  H87  1  0.60170000  0.86870000  0.16410000  1
  H  H88  1  0.67350000  0.83610000  0.13490000  1
  H  H89  1  0.60660000  0.80120000  0.16730000  1
  H  H90  1  0.72450000  0.17690000  0.62280000  1
  H  H91  1  0.79260000  0.23370000  0.68930000  1
  H  H92  1  0.60240000  0.09990000  0.74530000  1
  H  H93  1  0.60170000  0.13130000  0.83590000  1
  H  H94  1  0.67350000  0.16390000  0.86510000  1
  H  H95  1  0.60660000  0.19880000  0.83270000  1
  H  H96  1  0.22450000  0.37720000  0.17690000  1
  H  H97  1  0.29260000  0.31070000  0.23370000  1
  H  H98  1  0.10240000  0.25470000  0.09990000  1
  H  H99  1  0.10170000  0.16410000  0.13130000  1
  H  H100  1  0.17350000  0.13490000  0.16390000  1
  H  H101  1  0.10660000  0.16730000  0.19880000  1
  H  H102  1  0.22450000  0.62280000  0.82310000  1
  H  H103  1  0.29260000  0.68930000  0.76630000  1
  H  H104  1  0.10240000  0.74530000  0.90010000  1
  H  H105  1  0.10170000  0.83590000  0.86870000  1
  H  H106  1  0.17350000  0.86510000  0.83610000  1
  H  H107  1  0.10660000  0.83270000  0.80120000  1
  H  H108  1  0.86230000  0.05580000  0.50000000  1
  H  H109  1  0.79840000  0.25780000  0.50000000  1
  H  H110  1  0.36230000  0.50000000  0.05580000  1
  H  H111  1  0.29840000  0.50000000  0.25780000  1
  H  H112  1  0.13770000  0.94420000  0.50000000  1
  H  H113  1  0.20160000  0.74220000  0.50000000  1
  H  H114  1  0.63770000  0.50000000  0.94420000  1
  H  H115  1  0.70160000  0.50000000  0.74220000  1
  H  H116  1  0.61245000  0.52911000  0.72735000  1
  H  H117  1  0.46852000  0.52911000  0.24007000  1
  H  H118  1  0.11245000  0.72735000  0.52911000  1
  H  H119  1  0.96852000  0.24007000  0.52911000  1
  C  C120  1  0.62920000  0.90630000  0.63580000  1
  C  C121  1  0.66250000  0.86970000  0.67870000  1
  C  C122  1  0.71490000  0.82820000  0.66210000  1
  C  C123  1  0.75450000  0.79340000  0.70080000  1
  C  C124  1  0.73320000  0.80150000  0.75920000  1
  C  C125  1  0.68670000  0.84080000  0.77510000  1
  C  C126  1  0.64300000  0.87500000  0.73360000  1
  C  C127  1  0.63730000  0.83630000  0.83280000  1
  C  C128  1  0.62920000  0.09370000  0.36420000  1
  C  C129  1  0.66250000  0.13030000  0.32130000  1
  C  C130  1  0.71490000  0.17180000  0.33790000  1
  C  C131  1  0.75450000  0.20660000  0.29920000  1
  C  C132  1  0.73320000  0.19850000  0.24080000  1
  C  C133  1  0.68670000  0.15920000  0.22490000  1
  C  C134  1  0.64300000  0.12500000  0.26640000  1
  C  C135  1  0.63730000  0.16370000  0.16720000  1
  C  C136  1  0.12920000  0.36420000  0.90630000  1
  C  C137  1  0.16250000  0.32130000  0.86970000  1
  C  C138  1  0.21490000  0.33790000  0.82820000  1
  C  C139  1  0.25450000  0.29920000  0.79340000  1
  C  C140  1  0.23320000  0.24080000  0.80150000  1
  C  C141  1  0.18670000  0.22490000  0.84080000  1
  C  C142  1  0.14300000  0.26640000  0.87500000  1
  C  C143  1  0.13730000  0.16720000  0.83630000  1
  C  C144  1  0.12920000  0.63580000  0.09370000  1
  C  C145  1  0.16250000  0.67870000  0.13030000  1
  C  C146  1  0.21490000  0.66210000  0.17180000  1
  C  C147  1  0.25450000  0.70080000  0.20660000  1
  C  C148  1  0.23320000  0.75920000  0.19850000  1
  C  C149  1  0.18670000  0.77510000  0.15920000  1
  C  C150  1  0.14300000  0.73360000  0.12500000  1
  C  C151  1  0.13730000  0.83280000  0.16370000  1
  C  C152  1  0.37080000  0.09370000  0.63580000  1
  C  C153  1  0.33750000  0.13030000  0.67870000  1
  C  C154  1  0.28510000  0.17180000  0.66210000  1
  C  C155  1  0.24550000  0.20660000  0.70080000  1
  C  C156  1  0.26680000  0.19850000  0.75920000  1
  C  C157  1  0.31330000  0.15920000  0.77510000  1
  C  C158  1  0.35700000  0.12500000  0.73360000  1
  C  C159  1  0.36270000  0.16370000  0.83280000  1
  C  C160  1  0.37080000  0.90630000  0.36420000  1
  C  C161  1  0.33750000  0.86970000  0.32130000  1
  C  C162  1  0.28510000  0.82820000  0.33790000  1
  C  C163  1  0.24550000  0.79340000  0.29920000  1
  C  C164  1  0.26680000  0.80150000  0.24080000  1
  C  C165  1  0.31330000  0.84080000  0.22490000  1
  C  C166  1  0.35700000  0.87500000  0.26640000  1
  C  C167  1  0.36270000  0.83630000  0.16720000  1
  C  C168  1  0.87080000  0.63580000  0.90630000  1
  C  C169  1  0.83750000  0.67870000  0.86970000  1
  C  C170  1  0.78510000  0.66210000  0.82820000  1
  C  C171  1  0.74550000  0.70080000  0.79340000  1
  C  C172  1  0.76680000  0.75920000  0.80150000  1
  C  C173  1  0.81330000  0.77510000  0.84080000  1
  C  C174  1  0.85700000  0.73360000  0.87500000  1
  C  C175  1  0.86270000  0.83280000  0.83630000  1
  C  C176  1  0.87080000  0.36420000  0.09370000  1
  C  C177  1  0.83750000  0.32130000  0.13030000  1
  C  C178  1  0.78510000  0.33790000  0.17180000  1
  C  C179  1  0.74550000  0.29920000  0.20660000  1
  C  C180  1  0.76680000  0.24080000  0.19850000  1
  C  C181  1  0.81330000  0.22490000  0.15920000  1
  C  C182  1  0.85700000  0.26640000  0.12500000  1
  C  C183  1  0.86270000  0.16720000  0.16370000  1
  C  C184  1  0.37080000  0.09370000  0.36420000  1
  C  C185  1  0.33750000  0.13030000  0.32130000  1
  C  C186  1  0.28510000  0.17180000  0.33790000  1
  C  C187  1  0.24550000  0.20660000  0.29920000  1
  C  C188  1  0.26680000  0.19850000  0.24080000  1
  C  C189  1  0.31330000  0.15920000  0.22490000  1
  C  C190  1  0.35700000  0.12500000  0.26640000  1
  C  C191  1  0.36270000  0.16370000  0.16720000  1
  C  C192  1  0.37080000  0.90630000  0.63580000  1
  C  C193  1  0.33750000  0.86970000  0.67870000  1
  C  C194  1  0.28510000  0.82820000  0.66210000  1
  C  C195  1  0.24550000  0.79340000  0.70080000  1
  C  C196  1  0.26680000  0.80150000  0.75920000  1
  C  C197  1  0.31330000  0.84080000  0.77510000  1
  C  C198  1  0.35700000  0.87500000  0.73360000  1
  C  C199  1  0.36270000  0.83630000  0.83280000  1
  C  C200  1  0.87080000  0.63580000  0.09370000  1
  C  C201  1  0.83750000  0.67870000  0.13030000  1
  C  C202  1  0.78510000  0.66210000  0.17180000  1
  C  C203  1  0.74550000  0.70080000  0.20660000  1
  C  C204  1  0.76680000  0.75920000  0.19850000  1
  C  C205  1  0.81330000  0.77510000  0.15920000  1
  C  C206  1  0.85700000  0.73360000  0.12500000  1
  C  C207  1  0.86270000  0.83280000  0.16370000  1
  C  C208  1  0.87080000  0.36420000  0.90630000  1
  C  C209  1  0.83750000  0.32130000  0.86970000  1
  C  C210  1  0.78510000  0.33790000  0.82820000  1
  C  C211  1  0.74550000  0.29920000  0.79340000  1
  C  C212  1  0.76680000  0.24080000  0.80150000  1
  C  C213  1  0.81330000  0.22490000  0.84080000  1
  C  C214  1  0.85700000  0.26640000  0.87500000  1
  C  C215  1  0.86270000  0.16720000  0.83630000  1
  C  C216  1  0.62920000  0.90630000  0.36420000  1
  C  C217  1  0.66250000  0.86970000  0.32130000  1
  C  C218  1  0.71490000  0.82820000  0.33790000  1
  C  C219  1  0.75450000  0.79340000  0.29920000  1
  C  C220  1  0.73320000  0.80150000  0.24080000  1
  C  C221  1  0.68670000  0.84080000  0.22490000  1
  C  C222  1  0.64300000  0.87500000  0.26640000  1
  C  C223  1  0.63730000  0.83630000  0.16720000  1
  C  C224  1  0.62920000  0.09370000  0.63580000  1
  C  C225  1  0.66250000  0.13030000  0.67870000  1
  C  C226  1  0.71490000  0.17180000  0.66210000  1
  C  C227  1  0.75450000  0.20660000  0.70080000  1
  C  C228  1  0.73320000  0.19850000  0.75920000  1
  C  C229  1  0.68670000  0.15920000  0.77510000  1
  C  C230  1  0.64300000  0.12500000  0.73360000  1
  C  C231  1  0.63730000  0.16370000  0.83280000  1
  C  C232  1  0.12920000  0.36420000  0.09370000  1
  C  C233  1  0.16250000  0.32130000  0.13030000  1
  C  C234  1  0.21490000  0.33790000  0.17180000  1
  C  C235  1  0.25450000  0.29920000  0.20660000  1
  C  C236  1  0.23320000  0.24080000  0.19850000  1
  C  C237  1  0.18670000  0.22490000  0.15920000  1
  C  C238  1  0.14300000  0.26640000  0.12500000  1
  C  C239  1  0.13730000  0.16720000  0.16370000  1
  C  C240  1  0.12920000  0.63580000  0.90630000  1
  C  C241  1  0.16250000  0.67870000  0.86970000  1
  C  C242  1  0.21490000  0.66210000  0.82820000  1
  C  C243  1  0.25450000  0.70080000  0.79340000  1
  C  C244  1  0.23320000  0.75920000  0.80150000  1
  C  C245  1  0.18670000  0.77510000  0.84080000  1
  C  C246  1  0.14300000  0.73360000  0.87500000  1
  C  C247  1  0.13730000  0.83280000  0.83630000  1
  C  C248  1  0.66180000  0.19790000  0.50000000  1
  C  C249  1  0.75210000  0.17460000  0.50000000  1
  C  C250  1  0.77280000  0.11760000  0.50000000  1
  C  C251  1  0.85010000  0.09500000  0.50000000  1
  C  C252  1  0.80860000  0.21820000  0.50000000  1
  C  C253  1  0.87910000  0.19350000  0.50000000  1
  C  C254  1  0.90700000  0.13920000  0.50000000  1
  C  C255  1  0.16180000  0.50000000  0.19790000  1
  C  C256  1  0.25210000  0.50000000  0.17460000  1
  C  C257  1  0.27280000  0.50000000  0.11760000  1
  C  C258  1  0.35010000  0.50000000  0.09500000  1
  C  C259  1  0.30860000  0.50000000  0.21820000  1
  C  C260  1  0.37910000  0.50000000  0.19350000  1
  C  C261  1  0.40700000  0.50000000  0.13920000  1
  C  C262  1  0.33820000  0.80210000  0.50000000  1
  C  C263  1  0.24790000  0.82540000  0.50000000  1
  C  C264  1  0.22720000  0.88240000  0.50000000  1
  C  C265  1  0.14990000  0.90500000  0.50000000  1
  C  C266  1  0.19140000  0.78180000  0.50000000  1
  C  C267  1  0.12090000  0.80650000  0.50000000  1
  C  C268  1  0.09300000  0.86080000  0.50000000  1
  C  C269  1  0.83820000  0.50000000  0.80210000  1
  C  C270  1  0.74790000  0.50000000  0.82540000  1
  C  C271  1  0.72720000  0.50000000  0.88240000  1
  C  C272  1  0.64990000  0.50000000  0.90500000  1
  C  C273  1  0.69140000  0.50000000  0.78180000  1
  C  C274  1  0.62090000  0.50000000  0.80650000  1
  C  C275  1  0.59300000  0.50000000  0.86080000  1
  C  C276  1  0.00000000  0.87170000  0.50000000  1
  C  C277  1  0.00000000  0.12830000  0.50000000  1
  C  C278  1  0.50000000  0.50000000  0.87170000  1
  C  C279  1  0.50000000  0.50000000  0.12830000  1
  O  O280  1  0.57740000  0.94364000  0.65232000  1
  O  O281  1  0.64440000  0.89560000  0.58580000  1
  O  O282  1  0.57740000  0.05636000  0.34768000  1
  O  O283  1  0.64440000  0.10440000  0.41420000  1
  O  O284  1  0.07740000  0.34768000  0.94364000  1
  O  O285  1  0.14440000  0.41420000  0.89560000  1
  O  O286  1  0.07740000  0.65232000  0.05636000  1
  O  O287  1  0.14440000  0.58580000  0.10440000  1
  O  O288  1  0.42260000  0.05636000  0.65232000  1
  O  O289  1  0.35560000  0.10440000  0.58580000  1
  O  O290  1  0.42260000  0.94364000  0.34768000  1
  O  O291  1  0.35560000  0.89560000  0.41420000  1
  O  O292  1  0.92260000  0.65232000  0.94364000  1
  O  O293  1  0.85560000  0.58580000  0.89560000  1
  O  O294  1  0.92260000  0.34768000  0.05636000  1
  O  O295  1  0.85560000  0.41420000  0.10440000  1
  O  O296  1  0.42260000  0.05636000  0.34768000  1
  O  O297  1  0.35560000  0.10440000  0.41420000  1
  O  O298  1  0.42260000  0.94364000  0.65232000  1
  O  O299  1  0.35560000  0.89560000  0.58580000  1
  O  O300  1  0.92260000  0.65232000  0.05636000  1
  O  O301  1  0.85560000  0.58580000  0.10440000  1
  O  O302  1  0.92260000  0.34768000  0.94364000  1
  O  O303  1  0.85560000  0.41420000  0.89560000  1
  O  O304  1  0.57740000  0.94364000  0.34768000  1
  O  O305  1  0.64440000  0.89560000  0.41420000  1
  O  O306  1  0.57740000  0.05636000  0.65232000  1
  O  O307  1  0.64440000  0.10440000  0.58580000  1
  O  O308  1  0.07740000  0.34768000  0.05636000  1
  O  O309  1  0.14440000  0.41420000  0.10440000  1
  O  O310  1  0.07740000  0.65232000  0.94364000  1
  O  O311  1  0.14440000  0.58580000  0.89560000  1
  O  O312  1  0.60200000  0.16610000  0.50000000  1
  O  O313  1  0.73120000  0.07160000  0.50000000  1
  O  O314  1  0.65440000  0.25150000  0.50000000  1
  O  O315  1  0.91740000  0.24270000  0.50000000  1
  O  O316  1  0.05570000  0.16490000  0.50000000  1
  O  O317  1  0.10200000  0.50000000  0.16610000  1
  O  O318  1  0.23120000  0.50000000  0.07160000  1
  O  O319  1  0.15440000  0.50000000  0.25150000  1
  O  O320  1  0.41740000  0.50000000  0.24270000  1
  O  O321  1  0.55570000  0.50000000  0.16490000  1
  O  O322  1  0.39800000  0.83390000  0.50000000  1
  O  O323  1  0.26880000  0.92840000  0.50000000  1
  O  O324  1  0.34560000  0.74850000  0.50000000  1
  O  O325  1  0.08260000  0.75730000  0.50000000  1
  O  O326  1  0.94430000  0.83510000  0.50000000  1
  O  O327  1  0.89800000  0.50000000  0.83390000  1
  O  O328  1  0.76880000  0.50000000  0.92840000  1
  O  O329  1  0.84560000  0.50000000  0.74850000  1
  O  O330  1  0.58260000  0.50000000  0.75730000  1
  O  O331  1  0.44430000  0.50000000  0.83510000  1
  O  O332  1  1.00000000  0.92450000  0.50000000  1
  O  O333  1  0.00000000  0.07550000  0.50000000  1
  O  O334  1  0.50000000  0.50000000  0.92450000  1
  O  O335  1  0.50000000  0.50000000  0.07550000  1
  O  O336  1  0.50000000  0.92560000  0.44920000  1
  O  O337  1  0.50000000  0.07440000  0.55080000  1
  O  O338  1  0.00000000  0.55080000  0.92560000  1
  O  O339  1  0.00000000  0.44920000  0.07440000  1
  O  O340  1  0.50000000  0.07440000  0.44920000  1
  O  O341  1  0.50000000  0.92560000  0.55080000  1
  O  O342  1  1.00000000  0.44920000  0.92560000  1
  O  O343  1  0.00000000  0.55080000  0.07440000  1
  O  O344  1  0.60620000  0.00000000  0.44950000  1
  O  O345  1  0.60620000  1.00000000  0.55050000  1
  O  O346  1  0.10620000  0.55050000  0.00000000  1
  O  O347  1  0.10620000  0.44950000  0.00000000  1
  O  O348  1  0.39380000  0.00000000  0.44950000  1
  O  O349  1  0.39380000  1.00000000  0.55050000  1
  O  O350  1  0.89380000  0.44950000  0.00000000  1
  O  O351  1  0.89380000  0.55050000  0.00000000  1
