# generated using pymatgen
data_Zr3H24(C9O4)4
_symmetry_space_group_name_H-M   'P 1'
_cell_length_a   15.89400000
_cell_length_b   23.87400000
_cell_length_c   23.87400000
_cell_angle_alpha   90.00000000
_cell_angle_beta   90.00000000
_cell_angle_gamma   90.00000000
_symmetry_Int_Tables_number   1
_chemical_formula_structural   Zr3H24(C9O4)4
_chemical_formula_sum   'Zr12 H96 C144 O64'
_cell_volume   9059.06942114
_cell_formula_units_Z   4
loop_
 _symmetry_equiv_pos_site_id
 _symmetry_equiv_pos_as_xyz
  1  'x, y, z'
loop_
 _atom_site_type_symbol
 _atom_site_label
 _atom_site_symmetry_multiplicity
 _atom_site_fract_x
 _atom_site_fract_y
 _atom_site_fract_z
 _atom_site_occupancy
  Zr  Zr0  1  0.38939000  0.07336000  0.50000000  1
  Zr  Zr1  1  0.50000000  0.00000000  0.39817000  1
  Zr  Zr2  1  0.88939000  0.50000000  0.07336000  1
  Zr  Zr3  1  0.00000000  0.60183000  0.00000000  1
  Zr  Zr4  1  0.38939000  0.92664000  0.50000000  1
  Zr  Zr5  1  0.50000000  1.00000000  0.60183000  1
  Zr  Zr6  1  0.88939000  0.50000000  0.92664000  1
  Zr  Zr7  1  0.00000000  0.39817000  0.00000000  1
  Zr  Zr8  1  0.61061000  0.07336000  0.50000000  1
  Zr  Zr9  1  0.11061000  0.50000000  0.07336000  1
  Zr  Zr10  1  0.61061000  0.92664000  0.50000000  1
  Zr  Zr11  1  0.11061000  0.50000000  0.92664000  1
  H  H12  1  0.40450000  0.10090000  0.26050000  1
  H  H13  1  0.18900000  0.22630000  0.30580000  1
  H  H14  1  0.25310000  0.17070000  0.37550000  1
  H  H15  1  0.41560000  0.13710000  0.16680000  1
  H  H16  1  0.38830000  0.20110000  0.15930000  1
  H  H17  1  0.32560000  0.15210000  0.14080000  1
  H  H18  1  0.90450000  0.73950000  0.10090000  1
  H  H19  1  0.68900000  0.69420000  0.22630000  1
  H  H20  1  0.75310000  0.62450000  0.17070000  1
  H  H21  1  0.91560000  0.83320000  0.13710000  1
  H  H22  1  0.88830000  0.84070000  0.20110000  1
  H  H23  1  0.82560000  0.85920000  0.15210000  1
  H  H24  1  0.40450000  0.89910000  0.73950000  1
  H  H25  1  0.18900000  0.77370000  0.69420000  1
  H  H26  1  0.25310000  0.82930000  0.62450000  1
  H  H27  1  0.41560000  0.86290000  0.83320000  1
  H  H28  1  0.38830000  0.79890000  0.84070000  1
  H  H29  1  0.32560000  0.84790000  0.85920000  1
  H  H30  1  0.90450000  0.26050000  0.89910000  1
  H  H31  1  0.68900000  0.30580000  0.77370000  1
  H  H32  1  0.75310000  0.37550000  0.82930000  1
  H  H33  1  0.91560000  0.16680000  0.86290000  1
  H  H34  1  0.88830000  0.15930000  0.79890000  1
  H  H35  1  0.82560000  0.14080000  0.84790000  1
  H  H36  1  0.59550000  0.10090000  0.73950000  1
  H  H37  1  0.81100000  0.22630000  0.69420000  1
  H  H38  1  0.74690000  0.17070000  0.62450000  1
  H  H39  1  0.58440000  0.13710000  0.83320000  1
  H  H40  1  0.61170000  0.20110000  0.84070000  1
  H  H41  1  0.67440000  0.15210000  0.85920000  1
  H  H42  1  0.09550000  0.26050000  0.10090000  1
  H  H43  1  0.31100000  0.30580000  0.22630000  1
  H  H44  1  0.24690000  0.37550000  0.17070000  1
  H  H45  1  0.08440000  0.16680000  0.13710000  1
  H  H46  1  0.11170000  0.15930000  0.20110000  1
  H  H47  1  0.17440000  0.14080000  0.15210000  1
  H  H48  1  0.59550000  0.89910000  0.26050000  1
  H  H49  1  0.81100000  0.77370000  0.30580000  1
  H  H50  1  0.74690000  0.82930000  0.37550000  1
  H  H51  1  0.58440000  0.86290000  0.16680000  1
  H  H52  1  0.61170000  0.79890000  0.15930000  1
  H  H53  1  0.67440000  0.84790000  0.14080000  1
  H  H54  1  0.09550000  0.73950000  0.89910000  1
  H  H55  1  0.31100000  0.69420000  0.77370000  1
  H  H56  1  0.24690000  0.62450000  0.82930000  1
  H  H57  1  0.08440000  0.83320000  0.86290000  1
  H  H58  1  0.11170000  0.84070000  0.79890000  1
  H  H59  1  0.17440000  0.85920000  0.84790000  1
  H  H60  1  0.59550000  0.89910000  0.73950000  1
  H  H61  1  0.81100000  0.77370000  0.69420000  1
  H  H62  1  0.74690000  0.82930000  0.62450000  1
  H  H63  1  0.58440000  0.86290000  0.83320000  1
  H  H64  1  0.61170000  0.79890000  0.84070000  1
  H  H65  1  0.67440000  0.84790000  0.85920000  1
  H  H66  1  0.09550000  0.26050000  0.89910000  1
  H  H67  1  0.31100000  0.30580000  0.77370000  1
  H  H68  1  0.24690000  0.37550000  0.82930000  1
  H  H69  1  0.08440000  0.16680000  0.86290000  1
  H  H70  1  0.11170000  0.15930000  0.79890000  1
  H  H71  1  0.17440000  0.14080000  0.84790000  1
  H  H72  1  0.59550000  0.10090000  0.26050000  1
  H  H73  1  0.81100000  0.22630000  0.30580000  1
  H  H74  1  0.74690000  0.17070000  0.37550000  1
  H  H75  1  0.58440000  0.13710000  0.16680000  1
  H  H76  1  0.61170000  0.20110000  0.15930000  1
  H  H77  1  0.67440000  0.15210000  0.14080000  1
  H  H78  1  0.09550000  0.73950000  0.10090000  1
  H  H79  1  0.31100000  0.69420000  0.22630000  1
  H  H80  1  0.24690000  0.62450000  0.17070000  1
  H  H81  1  0.08440000  0.83320000  0.13710000  1
  H  H82  1  0.11170000  0.84070000  0.20110000  1
  H  H83  1  0.17440000  0.85920000  0.15210000  1
  H  H84  1  0.40450000  0.89910000  0.26050000  1
  H  H85  1  0.18900000  0.77370000  0.30580000  1
  H  H86  1  0.25310000  0.82930000  0.37550000  1
  H  H87  1  0.41560000  0.86290000  0.16680000  1
  H  H88  1  0.38830000  0.79890000  0.15930000  1
  H  H89  1  0.32560000  0.84790000  0.14080000  1
  H  H90  1  0.90450000  0.73950000  0.89910000  1
  H  H91  1  0.68900000  0.69420000  0.77370000  1
  H  H92  1  0.75310000  0.62450000  0.82930000  1
  H  H93  1  0.91560000  0.83320000  0.86290000  1
  H  H94  1  0.88830000  0.84070000  0.79890000  1
  H  H95  1  0.82560000  0.85920000  0.84790000  1
  H  H96  1  0.40450000  0.10090000  0.73950000  1
  H  H97  1  0.18900000  0.22630000  0.69420000  1
  H  H98  1  0.25310000  0.17070000  0.62450000  1
  H  H99  1  0.41560000  0.13710000  0.83320000  1
  H  H100  1  0.38830000  0.20110000  0.84070000  1
  H  H101  1  0.32560000  0.15210000  0.85920000  1
  H  H102  1  0.90450000  0.26050000  0.10090000  1
  H  H103  1  0.68900000  0.30580000  0.22630000  1
  H  H104  1  0.75310000  0.37550000  0.17070000  1
  H  H105  1  0.91560000  0.16680000  0.13710000  1
  H  H106  1  0.88830000  0.15930000  0.20110000  1
  H  H107  1  0.82560000  0.14080000  0.15210000  1
  C  C108  1  0.36990000  0.09230000  0.36560000  1
  C  C109  1  0.32980000  0.13030000  0.32360000  1
  C  C110  1  0.36150000  0.12710000  0.26920000  1
  C  C111  1  0.32970000  0.16300000  0.22710000  1
  C  C112  1  0.26680000  0.19990000  0.24200000  1
  C  C113  1  0.23440000  0.20200000  0.29680000  1
  C  C114  1  0.27060000  0.16760000  0.33760000  1
  C  C115  1  0.36830000  0.16330000  0.16820000  1
  C  C116  1  0.20600000  0.03070000  0.50000000  1
  C  C117  1  0.11460000  0.03050000  0.50000000  1
  C  C118  1  0.86990000  0.63440000  0.09230000  1
  C  C119  1  0.82980000  0.67640000  0.13030000  1
  C  C120  1  0.86150000  0.73080000  0.12710000  1
  C  C121  1  0.82970000  0.77290000  0.16300000  1
  C  C122  1  0.76680000  0.75800000  0.19990000  1
  C  C123  1  0.73440000  0.70320000  0.20200000  1
  C  C124  1  0.77060000  0.66240000  0.16760000  1
  C  C125  1  0.86830000  0.83180000  0.16330000  1
  C  C126  1  0.70600000  0.50000000  0.03070000  1
  C  C127  1  0.61460000  0.50000000  0.03050000  1
  C  C128  1  0.36990000  0.90770000  0.63440000  1
  C  C129  1  0.32980000  0.86970000  0.67640000  1
  C  C130  1  0.36150000  0.87290000  0.73080000  1
  C  C131  1  0.32970000  0.83700000  0.77290000  1
  C  C132  1  0.26680000  0.80010000  0.75800000  1
  C  C133  1  0.23440000  0.79800000  0.70320000  1
  C  C134  1  0.27060000  0.83240000  0.66240000  1
  C  C135  1  0.36830000  0.83670000  0.83180000  1
  C  C136  1  0.20600000  0.96930000  0.50000000  1
  C  C137  1  0.11460000  0.96950000  0.50000000  1
  C  C138  1  0.86990000  0.36560000  0.90770000  1
  C  C139  1  0.82980000  0.32360000  0.86970000  1
  C  C140  1  0.86150000  0.26920000  0.87290000  1
  C  C141  1  0.82970000  0.22710000  0.83700000  1
  C  C142  1  0.76680000  0.24200000  0.80010000  1
  C  C143  1  0.73440000  0.29680000  0.79800000  1
  C  C144  1  0.77060000  0.33760000  0.83240000  1
  C  C145  1  0.86830000  0.16820000  0.83670000  1
  C  C146  1  0.70600000  0.50000000  0.96930000  1
  C  C147  1  0.61460000  0.50000000  0.96950000  1
  C  C148  1  0.63010000  0.09230000  0.63440000  1
  C  C149  1  0.67020000  0.13030000  0.67640000  1
  C  C150  1  0.63850000  0.12710000  0.73080000  1
  C  C151  1  0.67030000  0.16300000  0.77290000  1
  C  C152  1  0.73320000  0.19990000  0.75800000  1
  C  C153  1  0.76560000  0.20200000  0.70320000  1
  C  C154  1  0.72940000  0.16760000  0.66240000  1
  C  C155  1  0.63170000  0.16330000  0.83180000  1
  C  C156  1  0.79400000  0.03070000  0.50000000  1
  C  C157  1  0.88540000  0.03050000  0.50000000  1
  C  C158  1  0.13010000  0.36560000  0.09230000  1
  C  C159  1  0.17020000  0.32360000  0.13030000  1
  C  C160  1  0.13850000  0.26920000  0.12710000  1
  C  C161  1  0.17030000  0.22710000  0.16300000  1
  C  C162  1  0.23320000  0.24200000  0.19990000  1
  C  C163  1  0.26560000  0.29680000  0.20200000  1
  C  C164  1  0.22940000  0.33760000  0.16760000  1
  C  C165  1  0.13170000  0.16820000  0.16330000  1
  C  C166  1  0.29400000  0.50000000  0.03070000  1
  C  C167  1  0.38540000  0.50000000  0.03050000  1
  C  C168  1  0.63010000  0.90770000  0.36560000  1
  C  C169  1  0.67020000  0.86970000  0.32360000  1
  C  C170  1  0.63850000  0.87290000  0.26920000  1
  C  C171  1  0.67030000  0.83700000  0.22710000  1
  C  C172  1  0.73320000  0.80010000  0.24200000  1
  C  C173  1  0.76560000  0.79800000  0.29680000  1
  C  C174  1  0.72940000  0.83240000  0.33760000  1
  C  C175  1  0.63170000  0.83670000  0.16820000  1
  C  C176  1  0.79400000  0.96930000  0.50000000  1
  C  C177  1  0.88540000  0.96950000  0.50000000  1
  C  C178  1  0.13010000  0.63440000  0.90770000  1
  C  C179  1  0.17020000  0.67640000  0.86970000  1
  C  C180  1  0.13850000  0.73080000  0.87290000  1
  C  C181  1  0.17030000  0.77290000  0.83700000  1
  C  C182  1  0.23320000  0.75800000  0.80010000  1
  C  C183  1  0.26560000  0.70320000  0.79800000  1
  C  C184  1  0.22940000  0.66240000  0.83240000  1
  C  C185  1  0.13170000  0.83180000  0.83670000  1
  C  C186  1  0.29400000  0.50000000  0.96930000  1
  C  C187  1  0.38540000  0.50000000  0.96950000  1
  C  C188  1  0.63010000  0.90770000  0.63440000  1
  C  C189  1  0.67020000  0.86970000  0.67640000  1
  C  C190  1  0.63850000  0.87290000  0.73080000  1
  C  C191  1  0.67030000  0.83700000  0.77290000  1
  C  C192  1  0.73320000  0.80010000  0.75800000  1
  C  C193  1  0.76560000  0.79800000  0.70320000  1
  C  C194  1  0.72940000  0.83240000  0.66240000  1
  C  C195  1  0.63170000  0.83670000  0.83180000  1
  C  C196  1  0.13010000  0.36560000  0.90770000  1
  C  C197  1  0.17020000  0.32360000  0.86970000  1
  C  C198  1  0.13850000  0.26920000  0.87290000  1
  C  C199  1  0.17030000  0.22710000  0.83700000  1
  C  C200  1  0.23320000  0.24200000  0.80010000  1
  C  C201  1  0.26560000  0.29680000  0.79800000  1
  C  C202  1  0.22940000  0.33760000  0.83240000  1
  C  C203  1  0.13170000  0.16820000  0.83670000  1
  C  C204  1  0.63010000  0.09230000  0.36560000  1
  C  C205  1  0.67020000  0.13030000  0.32360000  1
  C  C206  1  0.63850000  0.12710000  0.26920000  1
  C  C207  1  0.67030000  0.16300000  0.22710000  1
  C  C208  1  0.73320000  0.19990000  0.24200000  1
  C  C209  1  0.76560000  0.20200000  0.29680000  1
  C  C210  1  0.72940000  0.16760000  0.33760000  1
  C  C211  1  0.63170000  0.16330000  0.16820000  1
  C  C212  1  0.13010000  0.63440000  0.09230000  1
  C  C213  1  0.17020000  0.67640000  0.13030000  1
  C  C214  1  0.13850000  0.73080000  0.12710000  1
  C  C215  1  0.17030000  0.77290000  0.16300000  1
  C  C216  1  0.23320000  0.75800000  0.19990000  1
  C  C217  1  0.26560000  0.70320000  0.20200000  1
  C  C218  1  0.22940000  0.66240000  0.16760000  1
  C  C219  1  0.13170000  0.83180000  0.16330000  1
  C  C220  1  0.36990000  0.90770000  0.36560000  1
  C  C221  1  0.32980000  0.86970000  0.32360000  1
  C  C222  1  0.36150000  0.87290000  0.26920000  1
  C  C223  1  0.32970000  0.83700000  0.22710000  1
  C  C224  1  0.26680000  0.80010000  0.24200000  1
  C  C225  1  0.23440000  0.79800000  0.29680000  1
  C  C226  1  0.27060000  0.83240000  0.33760000  1
  C  C227  1  0.36830000  0.83670000  0.16820000  1
  C  C228  1  0.86990000  0.63440000  0.90770000  1
  C  C229  1  0.82980000  0.67640000  0.86970000  1
  C  C230  1  0.86150000  0.73080000  0.87290000  1
  C  C231  1  0.82970000  0.77290000  0.83700000  1
  C  C232  1  0.76680000  0.75800000  0.80010000  1
  C  C233  1  0.73440000  0.70320000  0.79800000  1
  C  C234  1  0.77060000  0.66240000  0.83240000  1
  C  C235  1  0.86830000  0.83180000  0.83670000  1
  C  C236  1  0.36990000  0.09230000  0.63440000  1
  C  C237  1  0.32980000  0.13030000  0.67640000  1
  C  C238  1  0.36150000  0.12710000  0.73080000  1
  C  C239  1  0.32970000  0.16300000  0.77290000  1
  C  C240  1  0.26680000  0.19990000  0.75800000  1
  C  C241  1  0.23440000  0.20200000  0.70320000  1
  C  C242  1  0.27060000  0.16760000  0.66240000  1
  C  C243  1  0.36830000  0.16330000  0.83180000  1
  C  C244  1  0.86990000  0.36560000  0.09230000  1
  C  C245  1  0.82980000  0.32360000  0.13030000  1
  C  C246  1  0.86150000  0.26920000  0.12710000  1
  C  C247  1  0.82970000  0.22710000  0.16300000  1
  C  C248  1  0.76680000  0.24200000  0.19990000  1
  C  C249  1  0.73440000  0.29680000  0.20200000  1
  C  C250  1  0.77060000  0.33760000  0.16760000  1
  C  C251  1  0.86830000  0.16820000  0.16330000  1
  O  O252  1  0.41840000  0.05457000  0.35045000  1
  O  O253  1  0.34610000  0.10290000  0.41630000  1
  O  O254  1  0.25360000  0.07130000  0.50000000  1
  O  O255  1  0.06060000  0.06830000  0.50000000  1
  O  O256  1  0.50000000  0.07260000  0.45070000  1
  O  O257  1  0.39010000  0.00000000  0.54960000  1
  O  O258  1  0.91840000  0.64955000  0.05457000  1
  O  O259  1  0.84610000  0.58370000  0.10290000  1
  O  O260  1  0.75360000  0.50000000  0.07130000  1
  O  O261  1  0.56060000  0.50000000  0.06830000  1
  O  O262  1  0.00000000  0.54930000  0.07260000  1
  O  O263  1  0.89010000  0.45040000  0.00000000  1
  O  O264  1  0.41840000  0.94543000  0.64955000  1
  O  O265  1  0.34610000  0.89710000  0.58370000  1
  O  O266  1  0.25360000  0.92870000  0.50000000  1
  O  O267  1  0.06060000  0.93170000  0.50000000  1
  O  O268  1  0.50000000  0.92740000  0.54930000  1
  O  O269  1  0.39010000  1.00000000  0.45040000  1
  O  O270  1  0.91840000  0.35045000  0.94543000  1
  O  O271  1  0.84610000  0.41630000  0.89710000  1
  O  O272  1  0.75360000  0.50000000  0.92870000  1
  O  O273  1  0.56060000  0.50000000  0.93170000  1
  O  O274  1  0.00000000  0.45070000  0.92740000  1
  O  O275  1  0.89010000  0.54960000  0.00000000  1
  O  O276  1  0.58160000  0.05457000  0.64955000  1
  O  O277  1  0.65390000  0.10290000  0.58370000  1
  O  O278  1  0.74640000  0.07130000  0.50000000  1
  O  O279  1  0.93940000  0.06830000  0.50000000  1
  O  O280  1  0.50000000  0.07260000  0.54930000  1
  O  O281  1  0.60990000  1.00000000  0.45040000  1
  O  O282  1  0.08160000  0.35045000  0.05457000  1
  O  O283  1  0.15390000  0.41630000  0.10290000  1
  O  O284  1  0.24640000  0.50000000  0.07130000  1
  O  O285  1  0.43940000  0.50000000  0.06830000  1
  O  O286  1  0.00000000  0.45070000  0.07260000  1
  O  O287  1  0.10990000  0.54960000  0.00000000  1
  O  O288  1  0.58160000  0.94543000  0.35045000  1
  O  O289  1  0.65390000  0.89710000  0.41630000  1
  O  O290  1  0.74640000  0.92870000  0.50000000  1
  O  O291  1  0.93940000  0.93170000  0.50000000  1
  O  O292  1  0.50000000  0.92740000  0.45070000  1
  O  O293  1  0.60990000  0.00000000  0.54960000  1
  O  O294  1  0.08160000  0.64955000  0.94543000  1
  O  O295  1  0.15390000  0.58370000  0.89710000  1
  O  O296  1  0.24640000  0.50000000  0.92870000  1
  O  O297  1  0.43940000  0.50000000  0.93170000  1
  O  O298  1  0.00000000  0.54930000  0.92740000  1
  O  O299  1  0.10990000  0.45040000  0.00000000  1
  O  O300  1  0.58160000  0.94543000  0.64955000  1
  O  O301  1  0.65390000  0.89710000  0.58370000  1
  O  O302  1  0.08160000  0.35045000  0.94543000  1
  O  O303  1  0.15390000  0.41630000  0.89710000  1
  O  O304  1  0.58160000  0.05457000  0.35045000  1
  O  O305  1  0.65390000  0.10290000  0.41630000  1
  O  O306  1  0.08160000  0.64955000  0.05457000  1
  O  O307  1  0.15390000  0.58370000  0.10290000  1
  O  O308  1  0.41840000  0.94543000  0.35045000  1
  O  O309  1  0.34610000  0.89710000  0.41630000  1
  O  O310  1  0.91840000  0.64955000  0.94543000  1
  O  O311  1  0.84610000  0.58370000  0.89710000  1
  O  O312  1  0.41840000  0.05457000  0.64955000  1
  O  O313  1  0.34610000  0.10290000  0.58370000  1
  O  O314  1  0.91840000  0.35045000  0.05457000  1
  O  O315  1  0.84610000  0.41630000  0.10290000  1
