# generated using pymatgen
data_Zr3H24(C2O)20
_symmetry_space_group_name_H-M   'P 1'
_cell_length_a   16.35500000
_cell_length_b   23.79700000
_cell_length_c   23.79700000
_cell_angle_alpha   90.00000000
_cell_angle_beta   90.00000000
_cell_angle_gamma   90.00000000
_symmetry_Int_Tables_number   1
_chemical_formula_structural   Zr3H24(C2O)20
_chemical_formula_sum   'Zr12 H96 C160 O80'
_cell_volume   9261.79085320
_cell_formula_units_Z   4
loop_
 _symmetry_equiv_pos_site_id
 _symmetry_equiv_pos_as_xyz
  1  'x, y, z'
loop_
 _atom_site_type_symbol
 _atom_site_label
 _atom_site_symmetry_multiplicity
 _atom_site_fract_x
 _atom_site_fract_y
 _atom_site_fract_z
 _atom_site_occupancy
  Zr  Zr0  1  0.50000000  0.50000000  0.89740000  1
  Zr  Zr1  1  0.60719000  0.42636000  0.00000000  1
  Zr  Zr2  1  1.00000000  0.10260000  0.50000000  1
  Zr  Zr3  1  0.10719000  0.00000000  0.42636000  1
  Zr  Zr4  1  0.50000000  0.50000000  0.10260000  1
  Zr  Zr5  1  0.60719000  0.57364000  0.00000000  1
  Zr  Zr6  1  1.00000000  0.89740000  0.50000000  1
  Zr  Zr7  1  0.10719000  0.00000000  0.57364000  1
  Zr  Zr8  1  0.39281000  0.42636000  0.00000000  1
  Zr  Zr9  1  0.89281000  0.00000000  0.42636000  1
  Zr  Zr10  1  0.39281000  0.57364000  0.00000000  1
  Zr  Zr11  1  0.89281000  0.00000000  0.57364000  1
  H  H12  1  0.59650000  0.60340000  0.75870000  1
  H  H13  1  0.80230000  0.72700000  0.80700000  1
  H  H14  1  0.74530000  0.66920000  0.87400000  1
  H  H15  1  0.66550000  0.64500000  0.64070000  1
  H  H16  1  0.63010000  0.70630000  0.65390000  1
  H  H17  1  0.57650000  0.65180000  0.66780000  1
  H  H18  1  0.09650000  0.24130000  0.60340000  1
  H  H19  1  0.30230000  0.19300000  0.72700000  1
  H  H20  1  0.24530000  0.12600000  0.66920000  1
  H  H21  1  0.16550000  0.35930000  0.64500000  1
  H  H22  1  0.13010000  0.34610000  0.70630000  1
  H  H23  1  0.07650000  0.33220000  0.65180000  1
  H  H24  1  0.59650000  0.39660000  0.24130000  1
  H  H25  1  0.80230000  0.27300000  0.19300000  1
  H  H26  1  0.74530000  0.33080000  0.12600000  1
  H  H27  1  0.66550000  0.35500000  0.35930000  1
  H  H28  1  0.63010000  0.29370000  0.34610000  1
  H  H29  1  0.57650000  0.34820000  0.33220000  1
  H  H30  1  0.09650000  0.75870000  0.39660000  1
  H  H31  1  0.30230000  0.80700000  0.27300000  1
  H  H32  1  0.24530000  0.87400000  0.33080000  1
  H  H33  1  0.16550000  0.64070000  0.35500000  1
  H  H34  1  0.13010000  0.65390000  0.29370000  1
  H  H35  1  0.07650000  0.66780000  0.34820000  1
  H  H36  1  0.40350000  0.60340000  0.24130000  1
  H  H37  1  0.19770000  0.72700000  0.19300000  1
  H  H38  1  0.25470000  0.66920000  0.12600000  1
  H  H39  1  0.33450000  0.64500000  0.35930000  1
  H  H40  1  0.36990000  0.70630000  0.34610000  1
  H  H41  1  0.42350000  0.65180000  0.33220000  1
  H  H42  1  0.90350000  0.75870000  0.60340000  1
  H  H43  1  0.69770000  0.80700000  0.72700000  1
  H  H44  1  0.75470000  0.87400000  0.66920000  1
  H  H45  1  0.83450000  0.64070000  0.64500000  1
  H  H46  1  0.86990000  0.65390000  0.70630000  1
  H  H47  1  0.92350000  0.66780000  0.65180000  1
  H  H48  1  0.40350000  0.39660000  0.75870000  1
  H  H49  1  0.19770000  0.27300000  0.80700000  1
  H  H50  1  0.25470000  0.33080000  0.87400000  1
  H  H51  1  0.33450000  0.35500000  0.64070000  1
  H  H52  1  0.36990000  0.29370000  0.65390000  1
  H  H53  1  0.42350000  0.34820000  0.66780000  1
  H  H54  1  0.90350000  0.24130000  0.39660000  1
  H  H55  1  0.69770000  0.19300000  0.27300000  1
  H  H56  1  0.75470000  0.12600000  0.33080000  1
  H  H57  1  0.83450000  0.35930000  0.35500000  1
  H  H58  1  0.86990000  0.34610000  0.29370000  1
  H  H59  1  0.92350000  0.33220000  0.34820000  1
  H  H60  1  0.40350000  0.39660000  0.24130000  1
  H  H61  1  0.19770000  0.27300000  0.19300000  1
  H  H62  1  0.25470000  0.33080000  0.12600000  1
  H  H63  1  0.33450000  0.35500000  0.35930000  1
  H  H64  1  0.36990000  0.29370000  0.34610000  1
  H  H65  1  0.42350000  0.34820000  0.33220000  1
  H  H66  1  0.90350000  0.75870000  0.39660000  1
  H  H67  1  0.69770000  0.80700000  0.27300000  1
  H  H68  1  0.75470000  0.87400000  0.33080000  1
  H  H69  1  0.83450000  0.64070000  0.35500000  1
  H  H70  1  0.86990000  0.65390000  0.29370000  1
  H  H71  1  0.92350000  0.66780000  0.34820000  1
  H  H72  1  0.40350000  0.60340000  0.75870000  1
  H  H73  1  0.19770000  0.72700000  0.80700000  1
  H  H74  1  0.25470000  0.66920000  0.87400000  1
  H  H75  1  0.33450000  0.64500000  0.64070000  1
  H  H76  1  0.36990000  0.70630000  0.65390000  1
  H  H77  1  0.42350000  0.65180000  0.66780000  1
  H  H78  1  0.90350000  0.24130000  0.60340000  1
  H  H79  1  0.69770000  0.19300000  0.72700000  1
  H  H80  1  0.75470000  0.12600000  0.66920000  1
  H  H81  1  0.83450000  0.35930000  0.64500000  1
  H  H82  1  0.86990000  0.34610000  0.70630000  1
  H  H83  1  0.92350000  0.33220000  0.65180000  1
  H  H84  1  0.59650000  0.39660000  0.75870000  1
  H  H85  1  0.80230000  0.27300000  0.80700000  1
  H  H86  1  0.74530000  0.33080000  0.87400000  1
  H  H87  1  0.66550000  0.35500000  0.64070000  1
  H  H88  1  0.63010000  0.29370000  0.65390000  1
  H  H89  1  0.57650000  0.34820000  0.66780000  1
  H  H90  1  0.09650000  0.24130000  0.39660000  1
  H  H91  1  0.30230000  0.19300000  0.27300000  1
  H  H92  1  0.24530000  0.12600000  0.33080000  1
  H  H93  1  0.16550000  0.35930000  0.35500000  1
  H  H94  1  0.13010000  0.34610000  0.29370000  1
  H  H95  1  0.07650000  0.33220000  0.34820000  1
  H  H96  1  0.59650000  0.60340000  0.24130000  1
  H  H97  1  0.80230000  0.72700000  0.19300000  1
  H  H98  1  0.74530000  0.66920000  0.12600000  1
  H  H99  1  0.66550000  0.64500000  0.35930000  1
  H  H100  1  0.63010000  0.70630000  0.34610000  1
  H  H101  1  0.57650000  0.65180000  0.33220000  1
  H  H102  1  0.09650000  0.75870000  0.60340000  1
  H  H103  1  0.30230000  0.80700000  0.72700000  1
  H  H104  1  0.24530000  0.87400000  0.66920000  1
  H  H105  1  0.16550000  0.64070000  0.64500000  1
  H  H106  1  0.13010000  0.65390000  0.70630000  1
  H  H107  1  0.07650000  0.66780000  0.65180000  1
  C  C108  1  0.62850000  0.59360000  0.86510000  1
  C  C109  1  0.66620000  0.63030000  0.82270000  1
  C  C110  1  0.63860000  0.62920000  0.76840000  1
  C  C111  1  0.67000000  0.66480000  0.72620000  1
  C  C112  1  0.73290000  0.70110000  0.74210000  1
  C  C113  1  0.75970000  0.70190000  0.79660000  1
  C  C114  1  0.72630000  0.66730000  0.83640000  1
  C  C115  1  0.63200000  0.66720000  0.66666667  1
  C  C116  1  0.78790000  0.47060000  0.00000000  1
  C  C117  1  0.87360000  0.46960000  0.00000000  1
  C  C118  1  0.54310000  0.30330000  0.00000000  1
  C  C119  1  0.54330000  0.24280000  0.00000000  1
  C  C120  1  0.12850000  0.13490000  0.59360000  1
  C  C121  1  0.16620000  0.17730000  0.63030000  1
  C  C122  1  0.13860000  0.23160000  0.62920000  1
  C  C123  1  0.17000000  0.27380000  0.66480000  1
  C  C124  1  0.23290000  0.25790000  0.70110000  1
  C  C125  1  0.25970000  0.20340000  0.70190000  1
  C  C126  1  0.22630000  0.16360000  0.66730000  1
  C  C127  1  0.13200000  0.33333333  0.66720000  1
  C  C128  1  0.28790000  0.00000000  0.47060000  1
  C  C129  1  0.37360000  0.00000000  0.46960000  1
  C  C130  1  0.04310000  0.00000000  0.30330000  1
  C  C131  1  0.04330000  0.00000000  0.24280000  1
  C  C132  1  0.62850000  0.40640000  0.13490000  1
  C  C133  1  0.66620000  0.36970000  0.17730000  1
  C  C134  1  0.63860000  0.37080000  0.23160000  1
  C  C135  1  0.67000000  0.33520000  0.27380000  1
  C  C136  1  0.73290000  0.29890000  0.25790000  1
  C  C137  1  0.75970000  0.29810000  0.20340000  1
  C  C138  1  0.72630000  0.33270000  0.16360000  1
  C  C139  1  0.63200000  0.33280000  0.33333333  1
  C  C140  1  0.78790000  0.52940000  0.00000000  1
  C  C141  1  0.87360000  0.53040000  0.00000000  1
  C  C142  1  0.54310000  0.69670000  0.00000000  1
  C  C143  1  0.54330000  0.75720000  0.00000000  1
  C  C144  1  0.12850000  0.86510000  0.40640000  1
  C  C145  1  0.16620000  0.82270000  0.36970000  1
  C  C146  1  0.13860000  0.76840000  0.37080000  1
  C  C147  1  0.17000000  0.72620000  0.33520000  1
  C  C148  1  0.23290000  0.74210000  0.29890000  1
  C  C149  1  0.25970000  0.79660000  0.29810000  1
  C  C150  1  0.22630000  0.83640000  0.33270000  1
  C  C151  1  0.13200000  0.66666667  0.33280000  1
  C  C152  1  0.28790000  0.00000000  0.52940000  1
  C  C153  1  0.37360000  0.00000000  0.53040000  1
  C  C154  1  0.04310000  0.00000000  0.69670000  1
  C  C155  1  0.04330000  0.00000000  0.75720000  1
  C  C156  1  0.37150000  0.59360000  0.13490000  1
  C  C157  1  0.33380000  0.63030000  0.17730000  1
  C  C158  1  0.36140000  0.62920000  0.23160000  1
  C  C159  1  0.33000000  0.66480000  0.27380000  1
  C  C160  1  0.26710000  0.70110000  0.25790000  1
  C  C161  1  0.24030000  0.70190000  0.20340000  1
  C  C162  1  0.27370000  0.66730000  0.16360000  1
  C  C163  1  0.36800000  0.66720000  0.33333333  1
  C  C164  1  0.21210000  0.47060000  0.00000000  1
  C  C165  1  0.12640000  0.46960000  0.00000000  1
  C  C166  1  0.45690000  0.30330000  0.00000000  1
  C  C167  1  0.45670000  0.24280000  0.00000000  1
  C  C168  1  0.87150000  0.86510000  0.59360000  1
  C  C169  1  0.83380000  0.82270000  0.63030000  1
  C  C170  1  0.86140000  0.76840000  0.62920000  1
  C  C171  1  0.83000000  0.72620000  0.66480000  1
  C  C172  1  0.76710000  0.74210000  0.70110000  1
  C  C173  1  0.74030000  0.79660000  0.70190000  1
  C  C174  1  0.77370000  0.83640000  0.66730000  1
  C  C175  1  0.86800000  0.66666667  0.66720000  1
  C  C176  1  0.71210000  0.00000000  0.47060000  1
  C  C177  1  0.62640000  0.00000000  0.46960000  1
  C  C178  1  0.95690000  0.00000000  0.30330000  1
  C  C179  1  0.95670000  0.00000000  0.24280000  1
  C  C180  1  0.37150000  0.40640000  0.86510000  1
  C  C181  1  0.33380000  0.36970000  0.82270000  1
  C  C182  1  0.36140000  0.37080000  0.76840000  1
  C  C183  1  0.33000000  0.33520000  0.72620000  1
  C  C184  1  0.26710000  0.29890000  0.74210000  1
  C  C185  1  0.24030000  0.29810000  0.79660000  1
  C  C186  1  0.27370000  0.33270000  0.83640000  1
  C  C187  1  0.36800000  0.33280000  0.66666667  1
  C  C188  1  0.21210000  0.52940000  0.00000000  1
  C  C189  1  0.12640000  0.53040000  0.00000000  1
  C  C190  1  0.45690000  0.69670000  0.00000000  1
  C  C191  1  0.45670000  0.75720000  0.00000000  1
  C  C192  1  0.87150000  0.13490000  0.40640000  1
  C  C193  1  0.83380000  0.17730000  0.36970000  1
  C  C194  1  0.86140000  0.23160000  0.37080000  1
  C  C195  1  0.83000000  0.27380000  0.33520000  1
  C  C196  1  0.76710000  0.25790000  0.29890000  1
  C  C197  1  0.74030000  0.20340000  0.29810000  1
  C  C198  1  0.77370000  0.16360000  0.33270000  1
  C  C199  1  0.86800000  0.33333333  0.33280000  1
  C  C200  1  0.71210000  0.00000000  0.52940000  1
  C  C201  1  0.62640000  0.00000000  0.53040000  1
  C  C202  1  0.95690000  0.00000000  0.69670000  1
  C  C203  1  0.95670000  0.00000000  0.75720000  1
  C  C204  1  0.37150000  0.40640000  0.13490000  1
  C  C205  1  0.33380000  0.36970000  0.17730000  1
  C  C206  1  0.36140000  0.37080000  0.23160000  1
  C  C207  1  0.33000000  0.33520000  0.27380000  1
  C  C208  1  0.26710000  0.29890000  0.25790000  1
  C  C209  1  0.24030000  0.29810000  0.20340000  1
  C  C210  1  0.27370000  0.33270000  0.16360000  1
  C  C211  1  0.36800000  0.33280000  0.33333333  1
  C  C212  1  0.87150000  0.86510000  0.40640000  1
  C  C213  1  0.83380000  0.82270000  0.36970000  1
  C  C214  1  0.86140000  0.76840000  0.37080000  1
  C  C215  1  0.83000000  0.72620000  0.33520000  1
  C  C216  1  0.76710000  0.74210000  0.29890000  1
  C  C217  1  0.74030000  0.79660000  0.29810000  1
  C  C218  1  0.77370000  0.83640000  0.33270000  1
  C  C219  1  0.86800000  0.66666667  0.33280000  1
  C  C220  1  0.37150000  0.59360000  0.86510000  1
  C  C221  1  0.33380000  0.63030000  0.82270000  1
  C  C222  1  0.36140000  0.62920000  0.76840000  1
  C  C223  1  0.33000000  0.66480000  0.72620000  1
  C  C224  1  0.26710000  0.70110000  0.74210000  1
  C  C225  1  0.24030000  0.70190000  0.79660000  1
  C  C226  1  0.27370000  0.66730000  0.83640000  1
  C  C227  1  0.36800000  0.66720000  0.66666667  1
  C  C228  1  0.87150000  0.13490000  0.59360000  1
  C  C229  1  0.83380000  0.17730000  0.63030000  1
  C  C230  1  0.86140000  0.23160000  0.62920000  1
  C  C231  1  0.83000000  0.27380000  0.66480000  1
  C  C232  1  0.76710000  0.25790000  0.70110000  1
  C  C233  1  0.74030000  0.20340000  0.70190000  1
  C  C234  1  0.77370000  0.16360000  0.66730000  1
  C  C235  1  0.86800000  0.33333333  0.66720000  1
  C  C236  1  0.62850000  0.40640000  0.86510000  1
  C  C237  1  0.66620000  0.36970000  0.82270000  1
  C  C238  1  0.63860000  0.37080000  0.76840000  1
  C  C239  1  0.67000000  0.33520000  0.72620000  1
  C  C240  1  0.73290000  0.29890000  0.74210000  1
  C  C241  1  0.75970000  0.29810000  0.79660000  1
  C  C242  1  0.72630000  0.33270000  0.83640000  1
  C  C243  1  0.63200000  0.33280000  0.66666667  1
  C  C244  1  0.12850000  0.13490000  0.40640000  1
  C  C245  1  0.16620000  0.17730000  0.36970000  1
  C  C246  1  0.13860000  0.23160000  0.37080000  1
  C  C247  1  0.17000000  0.27380000  0.33520000  1
  C  C248  1  0.23290000  0.25790000  0.29890000  1
  C  C249  1  0.25970000  0.20340000  0.29810000  1
  C  C250  1  0.22630000  0.16360000  0.33270000  1
  C  C251  1  0.13200000  0.33333333  0.33280000  1
  C  C252  1  0.62850000  0.59360000  0.13490000  1
  C  C253  1  0.66620000  0.63030000  0.17730000  1
  C  C254  1  0.63860000  0.62920000  0.23160000  1
  C  C255  1  0.67000000  0.66480000  0.27380000  1
  C  C256  1  0.73290000  0.70110000  0.25790000  1
  C  C257  1  0.75970000  0.70190000  0.20340000  1
  C  C258  1  0.72630000  0.66730000  0.16360000  1
  C  C259  1  0.63200000  0.66720000  0.33333333  1
  C  C260  1  0.12850000  0.86510000  0.59360000  1
  C  C261  1  0.16620000  0.82270000  0.63030000  1
  C  C262  1  0.13860000  0.76840000  0.62920000  1
  C  C263  1  0.17000000  0.72620000  0.66480000  1
  C  C264  1  0.23290000  0.74210000  0.70110000  1
  C  C265  1  0.25970000  0.79660000  0.70190000  1
  C  C266  1  0.22630000  0.83640000  0.66730000  1
  C  C267  1  0.13200000  0.66666667  0.66720000  1
  O  O268  1  0.58030000  0.55556000  0.84988000  1
  O  O269  1  0.65010000  0.60332000  0.91541000  1
  O  O270  1  0.73960000  0.43170000  0.00000000  1
  O  O271  1  0.92720000  0.41870000  0.00000000  1
  O  O272  1  0.60230000  0.33480000  0.00000000  1
  O  O273  1  0.60820000  0.21810000  0.00000000  1
  O  O274  1  0.60540000  0.50000000  0.94960000  1
  O  O275  1  0.50000000  0.57410000  0.94960000  1
  O  O276  1  0.08030000  0.15012000  0.55556000  1
  O  O277  1  0.15010000  0.08459000  0.60332000  1
  O  O278  1  0.23960000  0.00000000  0.43170000  1
  O  O279  1  0.42720000  0.00000000  0.41870000  1
  O  O280  1  0.10230000  0.00000000  0.33480000  1
  O  O281  1  0.10820000  0.00000000  0.21810000  1
  O  O282  1  0.10540000  0.05040000  0.50000000  1
  O  O283  1  1.00000000  0.05040000  0.57410000  1
  O  O284  1  0.58030000  0.44444000  0.15012000  1
  O  O285  1  0.65010000  0.39668000  0.08459000  1
  O  O286  1  0.73960000  0.56830000  0.00000000  1
  O  O287  1  0.92720000  0.58130000  0.00000000  1
  O  O288  1  0.60230000  0.66520000  0.00000000  1
  O  O289  1  0.60820000  0.78190000  0.00000000  1
  O  O290  1  0.60540000  0.50000000  0.05040000  1
  O  O291  1  0.50000000  0.42590000  0.05040000  1
  O  O292  1  0.08030000  0.84988000  0.44444000  1
  O  O293  1  0.15010000  0.91541000  0.39668000  1
  O  O294  1  0.23960000  0.00000000  0.56830000  1
  O  O295  1  0.42720000  0.00000000  0.58130000  1
  O  O296  1  0.10230000  0.00000000  0.66520000  1
  O  O297  1  0.10820000  0.00000000  0.78190000  1
  O  O298  1  0.10540000  0.94960000  0.50000000  1
  O  O299  1  1.00000000  0.94960000  0.42590000  1
  O  O300  1  0.41970000  0.55556000  0.15012000  1
  O  O301  1  0.34990000  0.60332000  0.08459000  1
  O  O302  1  0.26040000  0.43170000  0.00000000  1
  O  O303  1  0.07280000  0.41870000  0.00000000  1
  O  O304  1  0.39770000  0.33480000  0.00000000  1
  O  O305  1  0.39180000  0.21810000  0.00000000  1
  O  O306  1  0.39460000  0.50000000  0.05040000  1
  O  O307  1  0.50000000  0.57410000  0.05040000  1
  O  O308  1  0.91970000  0.84988000  0.55556000  1
  O  O309  1  0.84990000  0.91541000  0.60332000  1
  O  O310  1  0.76040000  0.00000000  0.43170000  1
  O  O311  1  0.57280000  0.00000000  0.41870000  1
  O  O312  1  0.89770000  0.00000000  0.33480000  1
  O  O313  1  0.89180000  0.00000000  0.21810000  1
  O  O314  1  0.89460000  0.94960000  0.50000000  1
  O  O315  1  1.00000000  0.94960000  0.57410000  1
  O  O316  1  0.41970000  0.44444000  0.84988000  1
  O  O317  1  0.34990000  0.39668000  0.91541000  1
  O  O318  1  0.26040000  0.56830000  0.00000000  1
  O  O319  1  0.07280000  0.58130000  0.00000000  1
  O  O320  1  0.39770000  0.66520000  0.00000000  1
  O  O321  1  0.39180000  0.78190000  0.00000000  1
  O  O322  1  0.39460000  0.50000000  0.94960000  1
  O  O323  1  0.50000000  0.42590000  0.94960000  1
  O  O324  1  0.91970000  0.15012000  0.44444000  1
  O  O325  1  0.84990000  0.08459000  0.39668000  1
  O  O326  1  0.76040000  0.00000000  0.56830000  1
  O  O327  1  0.57280000  0.00000000  0.58130000  1
  O  O328  1  0.89770000  0.00000000  0.66520000  1
  O  O329  1  0.89180000  0.00000000  0.78190000  1
  O  O330  1  0.89460000  0.05040000  0.50000000  1
  O  O331  1  1.00000000  0.05040000  0.42590000  1
  O  O332  1  0.41970000  0.44444000  0.15012000  1
  O  O333  1  0.34990000  0.39668000  0.08459000  1
  O  O334  1  0.91970000  0.84988000  0.44444000  1
  O  O335  1  0.84990000  0.91541000  0.39668000  1
  O  O336  1  0.41970000  0.55556000  0.84988000  1
  O  O337  1  0.34990000  0.60332000  0.91541000  1
  O  O338  1  0.91970000  0.15012000  0.55556000  1
  O  O339  1  0.84990000  0.08459000  0.60332000  1
  O  O340  1  0.58030000  0.44444000  0.84988000  1
  O  O341  1  0.65010000  0.39668000  0.91541000  1
  O  O342  1  0.08030000  0.15012000  0.44444000  1
  O  O343  1  0.15010000  0.08459000  0.39668000  1
  O  O344  1  0.58030000  0.55556000  0.15012000  1
  O  O345  1  0.65010000  0.60332000  0.08459000  1
  O  O346  1  0.08030000  0.84988000  0.55556000  1
  O  O347  1  0.15010000  0.91541000  0.60332000  1
