# generated using pymatgen
data_Zr3H4C12(SO8)2
_symmetry_space_group_name_H-M   'P 1'
_cell_length_a   19.52450000
_cell_length_b   37.57570000
_cell_length_c   37.57570000
_cell_angle_alpha   120.00000000
_cell_angle_beta   90.00000000
_cell_angle_gamma   90.00000000
_symmetry_Int_Tables_number   1
_chemical_formula_structural   Zr3H4C12(SO8)2
_chemical_formula_sum   'Zr54 H72 C216 S36 O288'
_cell_volume   23873.97376414
_cell_formula_units_Z   18
loop_
 _symmetry_equiv_pos_site_id
 _symmetry_equiv_pos_as_xyz
  1  'x, y, z'
loop_
 _atom_site_type_symbol
 _atom_site_label
 _atom_site_symmetry_multiplicity
 _atom_site_fract_x
 _atom_site_fract_y
 _atom_site_fract_z
 _atom_site_occupancy
  Zr  Zr0  1  1.00000000  0.27248000  0.42470000  1
  Zr  Zr1  1  1.00000000  0.17494000  0.34988000  1
  Zr  Zr2  1  0.00000000  0.24966000  0.49932000  1
  Zr  Zr3  1  0.50000000  0.42685000  0.48123000  1
  Zr  Zr4  1  0.12287000  0.21277000  0.42554000  1
  Zr  Zr5  1  0.38849000  0.50000000  0.50000000  1
  Zr  Zr6  1  0.87713000  0.21277000  0.42554000  1
  Zr  Zr7  1  0.00000000  0.72752000  0.57530000  1
  Zr  Zr8  1  0.00000000  0.42470000  0.27248000  1
  Zr  Zr9  1  0.00000000  0.15222000  0.42470000  1
  Zr  Zr10  1  1.00000000  0.57530000  0.72752000  1
  Zr  Zr11  1  0.00000000  0.34988000  0.17494000  1
  Zr  Zr12  1  0.00000000  0.50068000  0.75034000  1
  Zr  Zr13  1  0.50000000  0.57315000  0.51877000  1
  Zr  Zr14  1  0.50000000  0.48123000  0.42685000  1
  Zr  Zr15  1  0.50000000  0.51877000  0.57315000  1
  Zr  Zr16  1  0.12287000  0.78723000  0.57446000  1
  Zr  Zr17  1  0.61151000  0.50000000  0.50000000  1
  Zr  Zr18  1  0.00000000  0.42470000  0.15222000  1
  Zr  Zr19  1  0.00000000  0.49932000  0.24966000  1
  Zr  Zr20  1  0.50000000  0.48123000  0.05438000  1
  Zr  Zr21  1  0.12287000  0.42554000  0.21277000  1
  Zr  Zr22  1  0.38849000  0.50000000  0.00000000  1
  Zr  Zr23  1  0.87713000  0.42554000  0.21277000  1
  Zr  Zr24  1  0.00000000  0.57530000  0.84778000  1
  Zr  Zr25  1  1.00000000  0.27248000  0.84778000  1
  Zr  Zr26  1  0.00000000  0.72752000  0.15222000  1
  Zr  Zr27  1  0.00000000  0.17494000  0.82506000  1
  Zr  Zr28  1  0.00000000  0.75034000  0.24966000  1
  Zr  Zr29  1  0.50000000  0.51877000  0.94562000  1
  Zr  Zr30  1  0.50000000  0.42685000  0.94562000  1
  Zr  Zr31  1  0.50000000  0.57315000  0.05438000  1
  Zr  Zr32  1  0.12287000  0.57446000  0.78723000  1
  Zr  Zr33  1  0.61151000  0.50000000  0.00000000  1
  Zr  Zr34  1  1.00000000  0.15222000  0.72752000  1
  Zr  Zr35  1  0.00000000  0.24966000  0.75034000  1
  Zr  Zr36  1  0.50000000  0.05438000  0.57315000  1
  Zr  Zr37  1  0.12287000  0.21277000  0.78723000  1
  Zr  Zr38  1  0.38849000  1.00000000  0.50000000  1
  Zr  Zr39  1  0.87713000  0.21277000  0.78723000  1
  Zr  Zr40  1  1.00000000  0.84778000  0.27248000  1
  Zr  Zr41  1  0.00000000  0.84778000  0.57530000  1
  Zr  Zr42  1  0.00000000  0.82506000  0.65012000  1
  Zr  Zr43  1  0.50000000  0.94562000  0.42685000  1
  Zr  Zr44  1  0.50000000  0.94562000  0.51877000  1
  Zr  Zr45  1  0.50000000  0.05438000  0.48123000  1
  Zr  Zr46  1  0.12287000  0.78723000  0.21277000  1
  Zr  Zr47  1  0.61151000  1.00000000  0.50000000  1
  Zr  Zr48  1  0.00000000  0.75034000  0.50068000  1
  Zr  Zr49  1  0.87713000  0.78723000  0.57446000  1
  Zr  Zr50  1  1.00000000  0.65012000  0.82506000  1
  Zr  Zr51  1  0.87713000  0.57446000  0.78723000  1
  Zr  Zr52  1  0.00000000  0.82506000  0.17494000  1
  Zr  Zr53  1  0.87713000  0.78723000  0.21277000  1
  H  H54  1  0.13132000  0.35905000  0.41765000  1
  H  H55  1  0.21721000  0.41652000  0.44576000  1
  H  H56  1  1.00000000  0.41772000  0.51270000  1
  H  H57  1  1.00000000  0.20446000  0.24438000  1
  H  H58  1  0.00000000  0.24438000  0.20446000  1
  H  H59  1  1.00000000  0.48730000  0.58228000  1
  H  H60  1  0.13132000  0.64095000  0.58235000  1
  H  H61  1  0.21721000  0.58348000  0.55424000  1
  H  H62  1  0.86868000  0.35905000  0.41765000  1
  H  H63  1  0.78279000  0.41652000  0.44576000  1
  H  H64  1  0.13132000  0.41765000  0.05860000  1
  H  H65  1  0.21721000  0.44576000  0.02924000  1
  H  H66  1  0.00000000  0.51270000  0.09498000  1
  H  H67  1  1.00000000  0.24438000  0.03992000  1
  H  H68  1  0.00000000  0.20446000  0.96008000  1
  H  H69  1  1.00000000  0.58228000  0.09498000  1
  H  H70  1  0.13132000  0.58235000  0.94140000  1
  H  H71  1  0.21721000  0.55424000  0.97076000  1
  H  H72  1  0.86868000  0.41765000  0.05860000  1
  H  H73  1  0.78279000  0.44576000  0.02924000  1
  H  H74  1  0.13132000  0.05860000  0.64095000  1
  H  H75  1  0.21721000  0.02924000  0.58348000  1
  H  H76  1  0.00000000  0.09498000  0.58228000  1
  H  H77  1  0.00000000  0.03992000  0.79554000  1
  H  H78  1  0.00000000  0.96008000  0.75562000  1
  H  H79  1  0.00000000  0.09498000  0.51270000  1
  H  H80  1  0.13132000  0.94140000  0.35905000  1
  H  H81  1  0.21721000  0.97076000  0.41652000  1
  H  H82  1  0.86868000  0.05860000  0.64095000  1
  H  H83  1  0.78279000  0.02924000  0.58348000  1
  H  H84  1  0.00000000  0.58228000  0.48730000  1
  H  H85  1  0.00000000  0.79554000  0.75562000  1
  H  H86  1  1.00000000  0.75562000  0.79554000  1
  H  H87  1  0.00000000  0.51270000  0.41772000  1
  H  H88  1  0.86868000  0.64095000  0.58235000  1
  H  H89  1  0.78279000  0.58348000  0.55424000  1
  H  H90  1  1.00000000  0.48730000  0.90502000  1
  H  H91  1  0.00000000  0.75562000  0.96008000  1
  H  H92  1  0.00000000  0.79554000  0.03992000  1
  H  H93  1  0.00000000  0.41772000  0.90502000  1
  H  H94  1  0.86868000  0.58235000  0.94140000  1
  H  H95  1  0.78279000  0.55424000  0.97076000  1
  H  H96  1  0.00000000  0.90502000  0.41772000  1
  H  H97  1  0.00000000  0.96008000  0.20446000  1
  H  H98  1  1.00000000  0.03992000  0.24438000  1
  H  H99  1  0.00000000  0.90502000  0.48730000  1
  H  H100  1  0.86868000  0.94140000  0.35905000  1
  H  H101  1  0.78279000  0.97076000  0.41652000  1
  H  H102  1  0.86868000  0.05860000  0.41765000  1
  H  H103  1  0.78279000  0.02924000  0.44576000  1
  H  H104  1  0.86868000  0.94140000  0.58235000  1
  H  H105  1  0.78279000  0.97076000  0.55424000  1
  H  H106  1  0.13132000  0.05860000  0.41765000  1
  H  H107  1  0.21721000  0.02924000  0.44576000  1
  H  H108  1  0.86868000  0.41765000  0.35905000  1
  H  H109  1  0.78279000  0.44576000  0.41652000  1
  H  H110  1  0.86868000  0.58235000  0.64095000  1
  H  H111  1  0.78279000  0.55424000  0.58348000  1
  H  H112  1  0.13132000  0.41765000  0.35905000  1
  H  H113  1  0.21721000  0.44576000  0.41652000  1
  H  H114  1  0.86868000  0.35905000  0.94140000  1
  H  H115  1  0.78279000  0.41652000  0.97076000  1
  H  H116  1  0.86868000  0.64095000  0.05860000  1
  H  H117  1  0.78279000  0.58348000  0.02924000  1
  H  H118  1  0.13132000  0.35905000  0.94140000  1
  H  H119  1  0.21721000  0.41652000  0.97076000  1
  H  H120  1  0.13132000  0.94140000  0.58235000  1
  H  H121  1  0.21721000  0.97076000  0.55424000  1
  H  H122  1  0.13132000  0.58235000  0.64095000  1
  H  H123  1  0.21721000  0.55424000  0.58348000  1
  H  H124  1  0.13132000  0.64095000  0.05860000  1
  H  H125  1  0.21721000  0.58348000  0.02924000  1
  C  C126  1  0.34455000  0.40679000  0.46887000  1
  C  C127  1  0.28862000  0.37433000  0.45092000  1
  C  C128  1  0.20643000  0.31969000  0.42455000  1
  C  C129  1  0.18204000  0.35512000  0.42599000  1
  C  C130  1  0.22819000  0.38605000  0.44125000  1
  C  C131  1  0.15430000  0.29127000  0.42364000  1
  C  C132  1  1.00000000  0.25233000  0.33473000  1
  C  C133  1  0.00000000  0.26442000  0.30195000  1
  C  C134  1  0.00000000  0.34152000  0.51544000  1
  C  C135  1  0.00000000  0.38624000  0.54909000  1
  C  C136  1  1.00000000  0.41998000  0.54290000  1
  C  C137  1  1.00000000  0.23803000  0.25940000  1
  C  C138  1  0.00000000  0.33473000  0.25233000  1
  C  C139  1  0.00000000  0.30195000  0.26442000  1
  C  C140  1  0.00000000  0.25940000  0.23803000  1
  C  C141  1  1.00000000  0.48456000  0.65848000  1
  C  C142  1  1.00000000  0.45091000  0.61376000  1
  C  C143  1  1.00000000  0.45710000  0.58002000  1
  C  C144  1  0.34455000  0.59321000  0.53113000  1
  C  C145  1  0.28862000  0.62567000  0.54908000  1
  C  C146  1  0.20643000  0.68031000  0.57545000  1
  C  C147  1  0.18204000  0.64488000  0.57401000  1
  C  C148  1  0.22819000  0.61395000  0.55875000  1
  C  C149  1  0.15430000  0.70873000  0.57636000  1
  C  C150  1  0.65545000  0.40679000  0.46887000  1
  C  C151  1  0.71138000  0.37433000  0.45092000  1
  C  C152  1  0.79357000  0.31969000  0.42455000  1
  C  C153  1  0.81796000  0.35512000  0.42599000  1
  C  C154  1  0.77181000  0.38605000  0.44125000  1
  C  C155  1  0.84570000  0.29127000  0.42364000  1
  C  C156  1  0.34455000  0.46887000  0.06208000  1
  C  C157  1  0.28862000  0.45092000  0.07659000  1
  C  C158  1  0.20643000  0.42455000  0.10486000  1
  C  C159  1  0.18204000  0.42599000  0.07087000  1
  C  C160  1  0.22819000  0.44125000  0.05520000  1
  C  C161  1  0.15430000  0.42364000  0.13237000  1
  C  C162  1  0.00000000  0.33473000  0.08240000  1
  C  C163  1  0.00000000  0.30195000  0.03753000  1
  C  C164  1  0.00000000  0.51544000  0.17392000  1
  C  C165  1  0.00000000  0.54909000  0.16285000  1
  C  C166  1  0.00000000  0.54290000  0.12292000  1
  C  C167  1  0.00000000  0.25940000  0.02137000  1
  C  C168  1  0.00000000  0.25233000  0.91760000  1
  C  C169  1  0.00000000  0.26442000  0.96247000  1
  C  C170  1  0.00000000  0.23803000  0.97863000  1
  C  C171  1  1.00000000  0.65848000  0.17392000  1
  C  C172  1  0.00000000  0.61376000  0.16285000  1
  C  C173  1  0.00000000  0.58002000  0.12292000  1
  C  C174  1  0.34455000  0.53113000  0.93792000  1
  C  C175  1  0.28862000  0.54908000  0.92341000  1
  C  C176  1  0.20643000  0.57545000  0.89514000  1
  C  C177  1  0.18204000  0.57401000  0.92913000  1
  C  C178  1  0.22819000  0.55875000  0.94480000  1
  C  C179  1  0.15430000  0.57636000  0.86763000  1
  C  C180  1  0.65545000  0.46887000  0.06208000  1
  C  C181  1  0.71138000  0.45092000  0.07659000  1
  C  C182  1  0.79357000  0.42455000  0.10486000  1
  C  C183  1  0.81796000  0.42599000  0.07087000  1
  C  C184  1  0.77181000  0.44125000  0.05520000  1
  C  C185  1  0.84570000  0.42364000  0.13237000  1
  C  C186  1  0.34455000  0.06208000  0.59321000  1
  C  C187  1  0.28862000  0.07659000  0.62567000  1
  C  C188  1  0.20643000  0.10486000  0.68031000  1
  C  C189  1  0.18204000  0.07087000  0.64488000  1
  C  C190  1  0.22819000  0.05520000  0.61395000  1
  C  C191  1  0.15430000  0.13237000  0.70873000  1
  C  C192  1  0.00000000  0.08240000  0.74767000  1
  C  C193  1  0.00000000  0.03753000  0.73558000  1
  C  C194  1  0.00000000  0.17392000  0.65848000  1
  C  C195  1  1.00000000  0.16285000  0.61376000  1
  C  C196  1  0.00000000  0.12292000  0.58002000  1
  C  C197  1  0.00000000  0.02137000  0.76197000  1
  C  C198  1  0.00000000  0.91760000  0.66527000  1
  C  C199  1  0.00000000  0.96247000  0.69805000  1
  C  C200  1  0.00000000  0.97863000  0.74060000  1
  C  C201  1  1.00000000  0.17392000  0.51544000  1
  C  C202  1  1.00000000  0.16285000  0.54909000  1
  C  C203  1  0.00000000  0.12292000  0.54290000  1
  C  C204  1  0.34455000  0.93792000  0.40679000  1
  C  C205  1  0.28862000  0.92341000  0.37433000  1
  C  C206  1  0.20643000  0.89514000  0.31969000  1
  C  C207  1  0.18204000  0.92913000  0.35512000  1
  C  C208  1  0.22819000  0.94480000  0.38605000  1
  C  C209  1  0.15430000  0.86763000  0.29127000  1
  C  C210  1  0.65545000  0.06208000  0.59321000  1
  C  C211  1  0.71138000  0.07659000  0.62567000  1
  C  C212  1  0.79357000  0.10486000  0.68031000  1
  C  C213  1  0.81796000  0.07087000  0.64488000  1
  C  C214  1  0.77181000  0.05520000  0.61395000  1
  C  C215  1  0.84570000  0.13237000  0.70873000  1
  C  C216  1  0.00000000  0.74767000  0.66527000  1
  C  C217  1  0.00000000  0.73558000  0.69805000  1
  C  C218  1  0.00000000  0.65848000  0.48456000  1
  C  C219  1  0.00000000  0.61376000  0.45091000  1
  C  C220  1  0.00000000  0.58002000  0.45710000  1
  C  C221  1  0.00000000  0.76197000  0.74060000  1
  C  C222  1  1.00000000  0.66527000  0.74767000  1
  C  C223  1  1.00000000  0.69805000  0.73558000  1
  C  C224  1  1.00000000  0.74060000  0.76197000  1
  C  C225  1  0.00000000  0.51544000  0.34152000  1
  C  C226  1  0.00000000  0.54909000  0.38624000  1
  C  C227  1  0.00000000  0.54290000  0.41998000  1
  C  C228  1  0.65545000  0.59321000  0.53113000  1
  C  C229  1  0.71138000  0.62567000  0.54908000  1
  C  C230  1  0.79357000  0.68031000  0.57545000  1
  C  C231  1  0.81796000  0.64488000  0.57401000  1
  C  C232  1  0.77181000  0.61395000  0.55875000  1
  C  C233  1  0.84570000  0.70873000  0.57636000  1
  C  C234  1  0.00000000  0.66527000  0.91760000  1
  C  C235  1  0.00000000  0.69805000  0.96247000  1
  C  C236  1  1.00000000  0.48456000  0.82608000  1
  C  C237  1  1.00000000  0.45091000  0.83715000  1
  C  C238  1  0.00000000  0.45710000  0.87708000  1
  C  C239  1  0.00000000  0.74060000  0.97863000  1
  C  C240  1  0.00000000  0.74767000  0.08240000  1
  C  C241  1  0.00000000  0.73558000  0.03753000  1
  C  C242  1  0.00000000  0.76197000  0.02137000  1
  C  C243  1  0.00000000  0.34152000  0.82608000  1
  C  C244  1  0.00000000  0.38624000  0.83715000  1
  C  C245  1  0.00000000  0.41998000  0.87708000  1
  C  C246  1  0.65545000  0.53113000  0.93792000  1
  C  C247  1  0.71138000  0.54908000  0.92341000  1
  C  C248  1  0.79357000  0.57545000  0.89514000  1
  C  C249  1  0.81796000  0.57401000  0.92913000  1
  C  C250  1  0.77181000  0.55875000  0.94480000  1
  C  C251  1  0.84570000  0.57636000  0.86763000  1
  C  C252  1  0.00000000  0.91760000  0.25233000  1
  C  C253  1  0.00000000  0.96247000  0.26442000  1
  C  C254  1  0.00000000  0.82608000  0.34152000  1
  C  C255  1  0.00000000  0.83715000  0.38624000  1
  C  C256  1  0.00000000  0.87708000  0.41998000  1
  C  C257  1  0.00000000  0.97863000  0.23803000  1
  C  C258  1  0.00000000  0.08240000  0.33473000  1
  C  C259  1  0.00000000  0.03753000  0.30195000  1
  C  C260  1  1.00000000  0.02137000  0.25940000  1
  C  C261  1  0.00000000  0.82608000  0.48456000  1
  C  C262  1  0.00000000  0.83715000  0.45091000  1
  C  C263  1  0.00000000  0.87708000  0.45710000  1
  C  C264  1  0.65545000  0.93792000  0.40679000  1
  C  C265  1  0.71138000  0.92341000  0.37433000  1
  C  C266  1  0.79357000  0.89514000  0.31969000  1
  C  C267  1  0.81796000  0.92913000  0.35512000  1
  C  C268  1  0.77181000  0.94480000  0.38605000  1
  C  C269  1  0.84570000  0.86763000  0.29127000  1
  C  C270  1  0.65545000  0.06208000  0.46887000  1
  C  C271  1  0.71138000  0.07659000  0.45092000  1
  C  C272  1  0.79357000  0.10486000  0.42455000  1
  C  C273  1  0.81796000  0.07087000  0.42599000  1
  C  C274  1  0.77181000  0.05520000  0.44125000  1
  C  C275  1  0.84570000  0.13237000  0.42364000  1
  C  C276  1  0.65545000  0.93792000  0.53113000  1
  C  C277  1  0.71138000  0.92341000  0.54908000  1
  C  C278  1  0.79357000  0.89514000  0.57545000  1
  C  C279  1  0.81796000  0.92913000  0.57401000  1
  C  C280  1  0.77181000  0.94480000  0.55875000  1
  C  C281  1  0.84570000  0.86763000  0.57636000  1
  C  C282  1  0.34455000  0.06208000  0.46887000  1
  C  C283  1  0.28862000  0.07659000  0.45092000  1
  C  C284  1  0.20643000  0.10486000  0.42455000  1
  C  C285  1  0.18204000  0.07087000  0.42599000  1
  C  C286  1  0.22819000  0.05520000  0.44125000  1
  C  C287  1  0.15430000  0.13237000  0.42364000  1
  C  C288  1  0.65545000  0.46887000  0.40679000  1
  C  C289  1  0.71138000  0.45092000  0.37433000  1
  C  C290  1  0.79357000  0.42455000  0.31969000  1
  C  C291  1  0.81796000  0.42599000  0.35512000  1
  C  C292  1  0.77181000  0.44125000  0.38605000  1
  C  C293  1  0.84570000  0.42364000  0.29127000  1
  C  C294  1  0.65545000  0.53113000  0.59321000  1
  C  C295  1  0.71138000  0.54908000  0.62567000  1
  C  C296  1  0.79357000  0.57545000  0.68031000  1
  C  C297  1  0.81796000  0.57401000  0.64488000  1
  C  C298  1  0.77181000  0.55875000  0.61395000  1
  C  C299  1  0.84570000  0.57636000  0.70873000  1
  C  C300  1  0.34455000  0.46887000  0.40679000  1
  C  C301  1  0.28862000  0.45092000  0.37433000  1
  C  C302  1  0.20643000  0.42455000  0.31969000  1
  C  C303  1  0.18204000  0.42599000  0.35512000  1
  C  C304  1  0.22819000  0.44125000  0.38605000  1
  C  C305  1  0.15430000  0.42364000  0.29127000  1
  C  C306  1  0.65545000  0.40679000  0.93792000  1
  C  C307  1  0.71138000  0.37433000  0.92341000  1
  C  C308  1  0.79357000  0.31969000  0.89514000  1
  C  C309  1  0.81796000  0.35512000  0.92913000  1
  C  C310  1  0.77181000  0.38605000  0.94480000  1
  C  C311  1  0.84570000  0.29127000  0.86763000  1
  C  C312  1  0.65545000  0.59321000  0.06208000  1
  C  C313  1  0.71138000  0.62567000  0.07659000  1
  C  C314  1  0.79357000  0.68031000  0.10486000  1
  C  C315  1  0.81796000  0.64488000  0.07087000  1
  C  C316  1  0.77181000  0.61395000  0.05520000  1
  C  C317  1  0.84570000  0.70873000  0.13237000  1
  C  C318  1  0.34455000  0.40679000  0.93792000  1
  C  C319  1  0.28862000  0.37433000  0.92341000  1
  C  C320  1  0.20643000  0.31969000  0.89514000  1
  C  C321  1  0.18204000  0.35512000  0.92913000  1
  C  C322  1  0.22819000  0.38605000  0.94480000  1
  C  C323  1  0.15430000  0.29127000  0.86763000  1
  C  C324  1  0.34455000  0.93792000  0.53113000  1
  C  C325  1  0.28862000  0.92341000  0.54908000  1
  C  C326  1  0.20643000  0.89514000  0.57545000  1
  C  C327  1  0.18204000  0.92913000  0.57401000  1
  C  C328  1  0.22819000  0.94480000  0.55875000  1
  C  C329  1  0.15430000  0.86763000  0.57636000  1
  C  C330  1  0.34455000  0.53113000  0.59321000  1
  C  C331  1  0.28862000  0.54908000  0.62567000  1
  C  C332  1  0.20643000  0.57545000  0.68031000  1
  C  C333  1  0.18204000  0.57401000  0.64488000  1
  C  C334  1  0.22819000  0.55875000  0.61395000  1
  C  C335  1  0.15430000  0.57636000  0.70873000  1
  C  C336  1  0.34455000  0.59321000  0.06208000  1
  C  C337  1  0.28862000  0.62567000  0.07659000  1
  C  C338  1  0.20643000  0.68031000  0.10486000  1
  C  C339  1  0.18204000  0.64488000  0.07087000  1
  C  C340  1  0.22819000  0.61395000  0.05520000  1
  C  C341  1  0.15430000  0.70873000  0.13237000  1
  S  S342  1  0.28866000  0.32405000  0.44157000  1
  S  S343  1  1.00000000  0.39967000  0.60032000  1
  S  S344  1  1.00000000  0.31610000  0.31610000  1
  S  S345  1  0.28866000  0.67595000  0.55843000  1
  S  S346  1  0.71134000  0.32405000  0.44157000  1
  S  S347  1  0.28866000  0.44157000  0.11752000  1
  S  S348  1  0.00000000  0.60032000  0.20065000  1
  S  S349  1  0.00000000  0.31610000  0.00000000  1
  S  S350  1  0.28866000  0.55843000  0.88248000  1
  S  S351  1  0.71134000  0.44157000  0.11752000  1
  S  S352  1  0.28866000  0.11752000  0.67595000  1
  S  S353  1  1.00000000  0.20065000  0.60033000  1
  S  S354  1  0.00000000  0.00000000  0.68390000  1
  S  S355  1  0.28866000  0.88248000  0.32405000  1
  S  S356  1  0.71134000  0.11752000  0.67595000  1
  S  S357  1  0.00000000  0.60033000  0.39968000  1
  S  S358  1  1.00000000  0.68390000  0.68390000  1
  S  S359  1  0.71134000  0.67595000  0.55843000  1
  S  S360  1  0.00000000  0.39968000  0.79935000  1
  S  S361  1  0.00000000  0.68390000  0.00000000  1
  S  S362  1  0.71134000  0.55843000  0.88248000  1
  S  S363  1  0.00000000  0.79935000  0.39967000  1
  S  S364  1  0.00000000  1.00000000  0.31610000  1
  S  S365  1  0.71134000  0.88248000  0.32405000  1
  S  S366  1  0.71134000  0.11752000  0.44157000  1
  S  S367  1  0.71134000  0.88248000  0.55843000  1
  S  S368  1  0.28866000  0.11752000  0.44157000  1
  S  S369  1  0.71134000  0.44157000  0.32405000  1
  S  S370  1  0.71134000  0.55843000  0.67595000  1
  S  S371  1  0.28866000  0.44157000  0.32405000  1
  S  S372  1  0.71134000  0.32405000  0.88248000  1
  S  S373  1  0.71134000  0.67595000  0.11752000  1
  S  S374  1  0.28866000  0.32405000  0.88248000  1
  S  S375  1  0.28866000  0.88248000  0.55843000  1
  S  S376  1  0.28866000  0.55843000  0.67595000  1
  S  S377  1  0.28866000  0.67595000  0.11752000  1
  O  O378  1  0.40600000  0.39459000  0.46867000  1
  O  O379  1  0.32752000  0.44420000  0.47983000  1
  O  O380  1  0.09149000  0.29900000  0.42129000  1
  O  O381  1  0.17651000  0.25933000  0.42508000  1
  O  O382  1  0.93688000  0.26389000  0.46419000  1
  O  O383  1  0.06352000  0.22275000  0.38523000  1
  O  O384  1  1.00000000  0.28031000  0.37354000  1
  O  O385  1  1.00000000  0.21264000  0.32078000  1
  O  O386  1  0.00000000  0.31505000  0.52827000  1
  O  O387  1  1.00000000  0.33185000  0.47687000  1
  O  O388  1  0.50000000  0.37387000  0.42364000  1
  O  O389  1  0.50000000  0.40021000  0.51892000  1
  O  O390  1  0.91823000  0.15395000  0.30790000  1
  O  O391  1  0.91801000  0.26991000  0.53982000  1
  O  O392  1  0.18823000  0.23880000  0.47760000  1
  O  O393  1  0.19401000  0.18738000  0.37476000  1
  O  O394  1  0.44019000  0.45188000  0.45188000  1
  O  O395  1  0.56148000  0.47195000  0.52805000  1
  O  O396  1  0.00000000  0.37354000  0.28031000  1
  O  O397  1  0.00000000  0.32078000  0.21264000  1
  O  O398  1  0.00000000  0.47173000  0.68495000  1
  O  O399  1  1.00000000  0.52313000  0.66815000  1
  O  O400  1  0.40600000  0.60541000  0.53133000  1
  O  O401  1  0.32752000  0.55580000  0.52017000  1
  O  O402  1  0.09149000  0.70100000  0.57871000  1
  O  O403  1  0.17651000  0.74067000  0.57492000  1
  O  O404  1  0.44019000  0.54812000  0.54812000  1
  O  O405  1  0.59400000  0.39459000  0.46867000  1
  O  O406  1  0.67248000  0.44420000  0.47983000  1
  O  O407  1  0.90851000  0.29900000  0.42129000  1
  O  O408  1  0.82349000  0.25933000  0.42508000  1
  O  O409  1  0.06312000  0.26389000  0.46419000  1
  O  O410  1  0.93648000  0.22275000  0.38523000  1
  O  O411  1  0.81177000  0.23880000  0.47760000  1
  O  O412  1  0.80599000  0.18738000  0.37476000  1
  O  O413  1  0.43852000  0.47195000  0.52805000  1
  O  O414  1  0.08177000  0.15395000  0.30790000  1
  O  O415  1  0.08199000  0.26991000  0.53982000  1
  O  O416  1  0.06312000  0.20030000  0.46419000  1
  O  O417  1  0.93648000  0.16248000  0.38523000  1
  O  O418  1  0.32752000  0.52017000  0.55580000  1
  O  O419  1  0.32752000  0.47983000  0.44420000  1
  O  O420  1  0.82349000  0.16575000  0.42508000  1
  O  O421  1  0.17651000  0.16575000  0.42508000  1
  O  O422  1  0.93688000  0.20030000  0.46419000  1
  O  O423  1  0.06352000  0.16248000  0.38523000  1
  O  O424  1  0.00000000  0.10814000  0.32078000  1
  O  O425  1  0.00000000  0.21322000  0.52827000  1
  O  O426  1  0.55981000  0.45188000  0.45188000  1
  O  O427  1  0.43852000  0.52805000  0.47195000  1
  O  O428  1  0.40600000  0.46867000  0.07408000  1
  O  O429  1  0.32752000  0.47983000  0.03563000  1
  O  O430  1  0.09149000  0.42129000  0.12229000  1
  O  O431  1  0.17651000  0.42508000  0.16575000  1
  O  O432  1  0.93688000  0.46419000  0.20030000  1
  O  O433  1  0.06352000  0.38523000  0.16248000  1
  O  O434  1  0.00000000  0.37354000  0.09323000  1
  O  O435  1  0.00000000  0.32078000  0.10814000  1
  O  O436  1  0.00000000  0.52827000  0.21322000  1
  O  O437  1  0.00000000  0.47687000  0.14502000  1
  O  O438  1  0.50000000  0.42364000  0.04977000  1
  O  O439  1  0.50000000  0.51892000  0.11871000  1
  O  O440  1  0.91823000  0.30790000  0.15395000  1
  O  O441  1  0.91801000  0.53982000  0.26991000  1
  O  O442  1  0.18823000  0.47760000  0.23880000  1
  O  O443  1  0.19401000  0.37476000  0.18738000  1
  O  O444  1  0.44019000  0.45188000  1.00000000  1
  O  O445  1  0.56148000  0.52805000  0.05610000  1
  O  O446  1  0.00000000  0.28031000  0.90677000  1
  O  O447  1  0.00000000  0.21264000  0.89186000  1
  O  O448  1  0.00000000  0.68495000  0.21322000  1
  O  O449  1  1.00000000  0.66815000  0.14502000  1
  O  O450  1  0.40600000  0.53133000  0.92592000  1
  O  O451  1  0.32752000  0.52017000  0.96437000  1
  O  O452  1  0.09149000  0.57871000  0.87771000  1
  O  O453  1  0.17651000  0.57492000  0.83425000  1
  O  O454  1  0.44019000  0.54812000  0.00000000  1
  O  O455  1  0.59400000  0.46867000  0.07408000  1
  O  O456  1  0.67248000  0.47983000  0.03563000  1
  O  O457  1  0.90851000  0.42129000  0.12229000  1
  O  O458  1  0.82349000  0.42508000  0.16575000  1
  O  O459  1  0.06312000  0.46419000  0.20030000  1
  O  O460  1  0.93648000  0.38523000  0.16248000  1
  O  O461  1  0.81177000  0.47760000  0.23880000  1
  O  O462  1  0.80599000  0.37476000  0.18738000  1
  O  O463  1  0.43852000  0.52805000  0.05610000  1
  O  O464  1  0.08177000  0.30790000  0.15395000  1
  O  O465  1  0.08199000  0.53982000  0.26991000  1
  O  O466  1  0.06312000  0.46419000  0.26389000  1
  O  O467  1  0.93648000  0.38523000  0.22275000  1
  O  O468  1  0.32752000  0.55580000  0.03563000  1
  O  O469  1  0.32752000  0.44420000  0.96437000  1
  O  O470  1  0.82349000  0.42508000  0.25933000  1
  O  O471  1  0.17651000  0.42508000  0.25933000  1
  O  O472  1  0.93688000  0.46419000  0.26389000  1
  O  O473  1  0.06352000  0.38523000  0.22275000  1
  O  O474  1  0.00000000  0.52827000  0.31505000  1
  O  O475  1  0.55981000  0.45188000  1.00000000  1
  O  O476  1  0.43852000  0.47195000  0.94390000  1
  O  O477  1  0.40600000  0.07408000  0.60541000  1
  O  O478  1  0.32752000  0.03563000  0.55580000  1
  O  O479  1  0.09149000  0.12229000  0.70100000  1
  O  O480  1  0.17651000  0.16575000  0.74067000  1
  O  O481  1  0.93688000  0.20030000  0.73611000  1
  O  O482  1  0.06352000  0.16248000  0.77725000  1
  O  O483  1  0.00000000  0.09323000  0.71969000  1
  O  O484  1  0.00000000  0.10814000  0.78736000  1
  O  O485  1  1.00000000  0.21322000  0.68495000  1
  O  O486  1  0.00000000  0.14502000  0.66815000  1
  O  O487  1  0.50000000  0.04977000  0.62613000  1
  O  O488  1  0.50000000  0.11871000  0.59979000  1
  O  O489  1  0.91823000  0.15395000  0.84605000  1
  O  O490  1  0.91801000  0.26991000  0.73009000  1
  O  O491  1  0.18823000  0.23880000  0.76120000  1
  O  O492  1  0.19401000  0.18738000  0.81262000  1
  O  O493  1  0.44019000  0.00000000  0.54812000  1
  O  O494  1  0.56148000  0.05610000  0.52805000  1
  O  O495  1  0.00000000  0.90677000  0.62646000  1
  O  O496  1  0.00000000  0.89186000  0.67922000  1
  O  O497  1  0.00000000  0.14502000  0.47687000  1
  O  O498  1  0.40600000  0.92592000  0.39459000  1
  O  O499  1  0.32752000  0.96437000  0.44420000  1
  O  O500  1  0.09149000  0.87771000  0.29900000  1
  O  O501  1  0.17651000  0.83425000  0.25933000  1
  O  O502  1  0.44019000  1.00000000  0.45188000  1
  O  O503  1  0.59400000  0.07408000  0.60541000  1
  O  O504  1  0.67248000  0.03563000  0.55580000  1
  O  O505  1  0.90851000  0.12229000  0.70100000  1
  O  O506  1  0.82349000  0.16575000  0.74067000  1
  O  O507  1  0.06312000  0.20030000  0.73611000  1
  O  O508  1  0.93648000  0.16248000  0.77725000  1
  O  O509  1  0.81177000  0.23880000  0.76120000  1
  O  O510  1  0.80599000  0.18738000  0.81262000  1
  O  O511  1  0.43852000  0.05610000  0.52805000  1
  O  O512  1  0.08177000  0.15395000  0.84605000  1
  O  O513  1  0.08199000  0.26991000  0.73009000  1
  O  O514  1  0.06312000  0.26389000  0.79970000  1
  O  O515  1  0.93648000  0.22275000  0.83752000  1
  O  O516  1  0.32752000  0.03563000  0.47983000  1
  O  O517  1  0.32752000  0.96437000  0.52017000  1
  O  O518  1  0.82349000  0.25933000  0.83425000  1
  O  O519  1  0.17651000  0.25933000  0.83425000  1
  O  O520  1  0.93688000  0.26389000  0.79970000  1
  O  O521  1  0.06352000  0.22275000  0.83752000  1
  O  O522  1  1.00000000  0.31505000  0.78678000  1
  O  O523  1  0.55981000  0.00000000  0.54812000  1
  O  O524  1  0.43852000  0.94390000  0.47195000  1
  O  O525  1  0.93688000  0.73611000  0.53581000  1
  O  O526  1  0.06352000  0.77725000  0.61477000  1
  O  O527  1  0.00000000  0.71969000  0.62646000  1
  O  O528  1  0.00000000  0.78736000  0.67922000  1
  O  O529  1  0.00000000  0.68495000  0.47173000  1
  O  O530  1  0.00000000  0.66815000  0.52313000  1
  O  O531  1  0.50000000  0.62613000  0.57636000  1
  O  O532  1  0.50000000  0.59979000  0.48108000  1
  O  O533  1  0.91823000  0.84605000  0.69210000  1
  O  O534  1  0.91801000  0.73009000  0.46018000  1
  O  O535  1  0.18823000  0.76120000  0.52240000  1
  O  O536  1  0.19401000  0.81262000  0.62524000  1
  O  O537  1  0.56148000  0.52805000  0.47195000  1
  O  O538  1  1.00000000  0.62646000  0.71969000  1
  O  O539  1  1.00000000  0.67922000  0.78736000  1
  O  O540  1  0.00000000  0.47687000  0.33185000  1
  O  O541  1  0.59400000  0.60541000  0.53133000  1
  O  O542  1  0.67248000  0.55580000  0.52017000  1
  O  O543  1  0.90851000  0.70100000  0.57871000  1
  O  O544  1  0.82349000  0.74067000  0.57492000  1
  O  O545  1  0.06312000  0.73611000  0.53581000  1
  O  O546  1  0.93648000  0.77725000  0.61477000  1
  O  O547  1  0.81177000  0.76120000  0.52240000  1
  O  O548  1  0.80599000  0.81262000  0.62524000  1
  O  O549  1  0.08177000  0.84605000  0.69210000  1
  O  O550  1  0.08199000  0.73009000  0.46018000  1
  O  O551  1  0.06312000  0.79970000  0.53581000  1
  O  O552  1  0.93648000  0.83752000  0.61477000  1
  O  O553  1  0.82349000  0.83425000  0.57492000  1
  O  O554  1  0.17651000  0.83425000  0.57492000  1
  O  O555  1  0.93688000  0.79970000  0.53581000  1
  O  O556  1  0.06352000  0.83752000  0.61477000  1
  O  O557  1  0.00000000  0.78678000  0.47173000  1
  O  O558  1  0.55981000  0.54812000  0.54812000  1
  O  O559  1  0.93688000  0.53581000  0.79970000  1
  O  O560  1  0.06352000  0.61477000  0.83752000  1
  O  O561  1  0.00000000  0.62646000  0.90677000  1
  O  O562  1  1.00000000  0.67922000  0.89186000  1
  O  O563  1  0.00000000  0.47173000  0.78678000  1
  O  O564  1  1.00000000  0.52313000  0.85498000  1
  O  O565  1  0.50000000  0.57636000  0.95023000  1
  O  O566  1  0.50000000  0.48108000  0.88129000  1
  O  O567  1  0.91823000  0.69210000  0.84605000  1
  O  O568  1  0.91801000  0.46018000  0.73009000  1
  O  O569  1  0.18823000  0.52240000  0.76120000  1
  O  O570  1  0.19401000  0.62524000  0.81262000  1
  O  O571  1  0.56148000  0.47195000  0.94390000  1
  O  O572  1  0.00000000  0.71969000  0.09323000  1
  O  O573  1  0.00000000  0.78736000  0.10814000  1
  O  O574  1  0.00000000  0.33185000  0.85498000  1
  O  O575  1  0.59400000  0.53133000  0.92592000  1
  O  O576  1  0.67248000  0.52017000  0.96437000  1
  O  O577  1  0.90851000  0.57871000  0.87771000  1
  O  O578  1  0.82349000  0.57492000  0.83425000  1
  O  O579  1  0.06312000  0.53581000  0.79970000  1
  O  O580  1  0.93648000  0.61477000  0.83752000  1
  O  O581  1  0.81177000  0.52240000  0.76120000  1
  O  O582  1  0.80599000  0.62524000  0.81262000  1
  O  O583  1  0.08177000  0.69210000  0.84605000  1
  O  O584  1  0.08199000  0.46018000  0.73009000  1
  O  O585  1  0.06312000  0.53581000  0.73611000  1
  O  O586  1  0.93648000  0.61477000  0.77725000  1
  O  O587  1  0.82349000  0.57492000  0.74067000  1
  O  O588  1  0.17651000  0.57492000  0.74067000  1
  O  O589  1  0.93688000  0.53581000  0.73611000  1
  O  O590  1  0.06352000  0.61477000  0.77725000  1
  O  O591  1  0.55981000  0.54812000  0.00000000  1
  O  O592  1  0.93688000  0.79970000  0.26389000  1
  O  O593  1  0.06352000  0.83752000  0.22275000  1
  O  O594  1  0.00000000  0.90677000  0.28031000  1
  O  O595  1  0.00000000  0.89186000  0.21264000  1
  O  O596  1  0.00000000  0.78678000  0.31505000  1
  O  O597  1  0.00000000  0.85498000  0.33185000  1
  O  O598  1  0.50000000  0.95023000  0.37387000  1
  O  O599  1  0.50000000  0.88129000  0.40021000  1
  O  O600  1  0.91823000  0.84605000  0.15395000  1
  O  O601  1  0.91801000  0.73009000  0.26991000  1
  O  O602  1  0.18823000  0.76120000  0.23880000  1
  O  O603  1  0.19401000  0.81262000  0.18738000  1
  O  O604  1  0.56148000  0.94390000  0.47195000  1
  O  O605  1  1.00000000  0.09323000  0.37354000  1
  O  O606  1  0.00000000  0.85498000  0.52313000  1
  O  O607  1  0.59400000  0.92592000  0.39459000  1
  O  O608  1  0.67248000  0.96437000  0.44420000  1
  O  O609  1  0.90851000  0.87771000  0.29900000  1
  O  O610  1  0.82349000  0.83425000  0.25933000  1
  O  O611  1  0.06312000  0.79970000  0.26389000  1
  O  O612  1  0.93648000  0.83752000  0.22275000  1
  O  O613  1  0.81177000  0.76120000  0.23880000  1
  O  O614  1  0.80599000  0.81262000  0.18738000  1
  O  O615  1  0.08177000  0.84605000  0.15395000  1
  O  O616  1  0.08199000  0.73009000  0.26991000  1
  O  O617  1  0.06312000  0.73611000  0.20030000  1
  O  O618  1  0.93648000  0.77725000  0.16248000  1
  O  O619  1  0.82349000  0.74067000  0.16575000  1
  O  O620  1  0.17651000  0.74067000  0.16575000  1
  O  O621  1  0.93688000  0.73611000  0.20030000  1
  O  O622  1  0.06352000  0.77725000  0.16248000  1
  O  O623  1  0.55981000  1.00000000  0.45188000  1
  O  O624  1  0.59400000  0.07408000  0.46867000  1
  O  O625  1  0.67248000  0.03563000  0.47983000  1
  O  O626  1  0.90851000  0.12229000  0.42129000  1
  O  O627  1  0.50000000  0.04977000  0.42364000  1
  O  O628  1  0.50000000  0.11871000  0.51892000  1
  O  O629  1  0.59400000  0.92592000  0.53133000  1
  O  O630  1  0.67248000  0.96437000  0.52017000  1
  O  O631  1  0.90851000  0.87771000  0.57871000  1
  O  O632  1  0.40600000  0.07408000  0.46867000  1
  O  O633  1  0.09149000  0.12229000  0.42129000  1
  O  O634  1  0.59400000  0.46867000  0.39459000  1
  O  O635  1  0.67248000  0.47983000  0.44420000  1
  O  O636  1  0.90851000  0.42129000  0.29900000  1
  O  O637  1  0.50000000  0.42364000  0.37387000  1
  O  O638  1  0.50000000  0.51892000  0.40021000  1
  O  O639  1  0.59400000  0.53133000  0.60541000  1
  O  O640  1  0.67248000  0.52017000  0.55580000  1
  O  O641  1  0.90851000  0.57871000  0.70100000  1
  O  O642  1  0.40600000  0.46867000  0.39459000  1
  O  O643  1  0.09149000  0.42129000  0.29900000  1
  O  O644  1  0.59400000  0.39459000  0.92592000  1
  O  O645  1  0.67248000  0.44420000  0.96437000  1
  O  O646  1  0.90851000  0.29900000  0.87771000  1
  O  O647  1  0.50000000  0.37387000  0.95023000  1
  O  O648  1  0.50000000  0.40021000  0.88129000  1
  O  O649  1  0.59400000  0.60541000  0.07408000  1
  O  O650  1  0.67248000  0.55580000  0.03563000  1
  O  O651  1  0.90851000  0.70100000  0.12229000  1
  O  O652  1  0.40600000  0.39459000  0.92592000  1
  O  O653  1  0.09149000  0.29900000  0.87771000  1
  O  O654  1  0.50000000  0.95023000  0.57636000  1
  O  O655  1  0.50000000  0.88129000  0.48108000  1
  O  O656  1  0.40600000  0.92592000  0.53133000  1
  O  O657  1  0.09149000  0.87771000  0.57871000  1
  O  O658  1  0.50000000  0.57636000  0.62613000  1
  O  O659  1  0.50000000  0.48108000  0.59979000  1
  O  O660  1  0.40600000  0.53133000  0.60541000  1
  O  O661  1  0.09149000  0.57871000  0.70100000  1
  O  O662  1  0.50000000  0.62613000  0.04977000  1
  O  O663  1  0.50000000  0.59979000  0.11871000  1
  O  O664  1  0.40600000  0.60541000  0.07408000  1
  O  O665  1  0.09149000  0.70100000  0.12229000  1
