# generated using pymatgen
data_Zr5H32(C3O2)12
_symmetry_space_group_name_H-M   'P 1'
_cell_length_a   10.17730000
_cell_length_b   19.46004881
_cell_length_c   19.46004881
_cell_angle_alpha   86.07916149
_cell_angle_beta   74.84138053
_cell_angle_gamma   74.84138053
_symmetry_Int_Tables_number   1
_chemical_formula_structural   Zr5H32(C3O2)12
_chemical_formula_sum   'Zr10 H64 C72 O48'
_cell_volume   3590.54269571
_cell_formula_units_Z   2
loop_
 _symmetry_equiv_pos_site_id
 _symmetry_equiv_pos_as_xyz
  1  'x, y, z'
loop_
 _atom_site_type_symbol
 _atom_site_label
 _atom_site_symmetry_multiplicity
 _atom_site_fract_x
 _atom_site_fract_y
 _atom_site_fract_z
 _atom_site_occupancy
  C  C0  1  0.50351000  0.65304000  0.94274000  1
  C  C1  1  0.53920000  0.58027000  0.94333000  1
  C  C2  1  0.09929000  0.34696000  0.05726000  1
  C  C3  1  0.06280000  0.41973000  0.05667000  1
  C  C4  1  0.15655000  0.94274000  0.34696000  1
  C  C5  1  0.11947000  0.94333000  0.41973000  1
  C  C6  1  0.44625000  0.05726000  0.65304000  1
  C  C7  1  0.48253000  0.05667000  0.58027000  1
  C  C8  1  0.99649000  0.05726000  0.34696000  1
  C  C9  1  0.96080000  0.05667000  0.41973000  1
  C  C10  1  0.40071000  0.94274000  0.65304000  1
  C  C11  1  0.43720000  0.94333000  0.58027000  1
  C  C12  1  0.34345000  0.65304000  0.05726000  1
  C  C13  1  0.38053000  0.58027000  0.05667000  1
  C  C14  1  0.05375000  0.34696000  0.94274000  1
  C  C15  1  0.01747000  0.41973000  0.94333000  1
  C  C16  1  0.49649000  0.34696000  0.05726000  1
  C  C17  1  0.46080000  0.41973000  0.05667000  1
  C  C18  1  0.90071000  0.65304000  0.94274000  1
  C  C19  1  0.93720000  0.58027000  0.94333000  1
  C  C20  1  0.84345000  0.05726000  0.65304000  1
  C  C21  1  0.88053000  0.05667000  0.58027000  1
  C  C22  1  0.55375000  0.94274000  0.34696000  1
  C  C23  1  0.51747000  0.94333000  0.41973000  1
  C  C24  1  0.00351000  0.94274000  0.65304000  1
  C  C25  1  0.03920000  0.94333000  0.58027000  1
  C  C26  1  0.59929000  0.05726000  0.34696000  1
  C  C27  1  0.56280000  0.05667000  0.41973000  1
  C  C28  1  0.65655000  0.34696000  0.94274000  1
  C  C29  1  0.61947000  0.41973000  0.94333000  1
  C  C30  1  0.94625000  0.65304000  0.05726000  1
  C  C31  1  0.98253000  0.58027000  0.05667000  1
  C  C32  1  0.65540000  0.87400000  0.81520000  1
  C  C33  1  0.71160000  0.83160000  0.74520000  1
  C  C34  1  0.34460000  0.12600000  0.18480000  1
  C  C35  1  0.28840000  0.16840000  0.25480000  1
  C  C36  1  0.52940000  0.81520000  0.12600000  1
  C  C37  1  0.54320000  0.74520000  0.16840000  1
  C  C38  1  0.47060000  0.18480000  0.87400000  1
  C  C39  1  0.45680000  0.25480000  0.83160000  1
  C  C40  1  0.84460000  0.18480000  0.12600000  1
  C  C41  1  0.78840000  0.25480000  0.16840000  1
  C  C42  1  0.15540000  0.81520000  0.87400000  1
  C  C43  1  0.21160000  0.74520000  0.83160000  1
  C  C44  1  0.97060000  0.87400000  0.18480000  1
  C  C45  1  0.95680000  0.83160000  0.25480000  1
  C  C46  1  0.02940000  0.12600000  0.81520000  1
  C  C47  1  0.04320000  0.16840000  0.74520000  1
  C  C48  1  0.36308000  0.77384000  0.00000000  1
  C  C49  1  0.40455000  0.69090000  0.00000000  1
  C  C50  1  0.47928000  0.54144000  0.00000000  1
  C  C51  1  0.13692000  0.22616000  0.00000000  1
  C  C52  1  0.09545000  0.30910000  0.00000000  1
  C  C53  1  0.02072000  0.45856000  0.00000000  1
  C  C54  1  0.13692000  0.00000000  0.22616000  1
  C  C55  1  0.09545000  0.00000000  0.30910000  1
  C  C56  1  0.02072000  0.00000000  0.45856000  1
  C  C57  1  0.36308000  0.00000000  0.77384000  1
  C  C58  1  0.40455000  0.00000000  0.69090000  1
  C  C59  1  0.47928000  0.00000000  0.54144000  1
  C  C60  1  0.63692000  0.22616000  0.00000000  1
  C  C61  1  0.59545000  0.30910000  0.00000000  1
  C  C62  1  0.52072000  0.45856000  0.00000000  1
  C  C63  1  0.86308000  0.77384000  0.00000000  1
  C  C64  1  0.90455000  0.69090000  0.00000000  1
  C  C65  1  0.97928000  0.54144000  0.00000000  1
  C  C66  1  0.86308000  0.00000000  0.77384000  1
  C  C67  1  0.90455000  0.00000000  0.69090000  1
  C  C68  1  0.97928000  0.00000000  0.54144000  1
  C  C69  1  0.63692000  0.00000000  0.22616000  1
  C  C70  1  0.59545000  0.00000000  0.30910000  1
  C  C71  1  0.52072000  0.00000000  0.45856000  1
  H  H72  1  0.55487000  0.68294000  0.89522000  1
  H  H73  1  0.62049000  0.54947000  0.89635000  1
  H  H74  1  0.13303000  0.31706000  0.10478000  1
  H  H75  1  0.06631000  0.45053000  0.10365000  1
  H  H76  1  0.23781000  0.89522000  0.31706000  1
  H  H77  1  0.16996000  0.89635000  0.45053000  1
  H  H78  1  0.45009000  0.10478000  0.68294000  1
  H  H79  1  0.51684000  0.10365000  0.54947000  1
  H  H80  1  0.94513000  0.10478000  0.31706000  1
  H  H81  1  0.87951000  0.10365000  0.45053000  1
  H  H82  1  0.36697000  0.89522000  0.68294000  1
  H  H83  1  0.43369000  0.89635000  0.54947000  1
  H  H84  1  0.26219000  0.68294000  0.10478000  1
  H  H85  1  0.33004000  0.54947000  0.10365000  1
  H  H86  1  0.04991000  0.31706000  0.89522000  1
  H  H87  1  0.98316000  0.45053000  0.89635000  1
  H  H88  1  0.44513000  0.31706000  0.10478000  1
  H  H89  1  0.37951000  0.45053000  0.10365000  1
  H  H90  1  0.86697000  0.68294000  0.89522000  1
  H  H91  1  0.93369000  0.54947000  0.89635000  1
  H  H92  1  0.76219000  0.10478000  0.68294000  1
  H  H93  1  0.83004000  0.10365000  0.54947000  1
  H  H94  1  0.54991000  0.89522000  0.31706000  1
  H  H95  1  0.48316000  0.89635000  0.45053000  1
  H  H96  1  0.05487000  0.89522000  0.68294000  1
  H  H97  1  0.12049000  0.89635000  0.54947000  1
  H  H98  1  0.63303000  0.10478000  0.31706000  1
  H  H99  1  0.56631000  0.10365000  0.45053000  1
  H  H100  1  0.73781000  0.31706000  0.89522000  1
  H  H101  1  0.66996000  0.45053000  0.89635000  1
  H  H102  1  0.95009000  0.68294000  0.10478000  1
  H  H103  1  0.01684000  0.54947000  0.10365000  1
  H  H104  1  0.76741000  0.87400000  0.81520000  1
  H  H105  1  0.83025000  0.80915000  0.73515000  1
  H  H106  1  0.68739000  0.86820000  0.69938000  1
  H  H107  1  0.65883000  0.78601000  0.74917000  1
  H  H108  1  0.45661000  0.12600000  0.18480000  1
  H  H109  1  0.23640000  0.22597000  0.24359000  1
  H  H110  1  0.37927000  0.16690000  0.27936000  1
  H  H111  1  0.20785000  0.14377000  0.29337000  1
  H  H112  1  0.64141000  0.81520000  0.12600000  1
  H  H113  1  0.65904000  0.71943000  0.16491000  1
  H  H114  1  0.49690000  0.70752000  0.14524000  1
  H  H115  1  0.48389000  0.75673000  0.22649000  1
  H  H116  1  0.58261000  0.18480000  0.87400000  1
  H  H117  1  0.40367000  0.25173000  0.78749000  1
  H  H118  1  0.56582000  0.26364000  0.80714000  1
  H  H119  1  0.39067000  0.30094000  0.86872000  1
  H  H120  1  0.73259000  0.18480000  0.12600000  1
  H  H121  1  0.75497000  0.30062000  0.13180000  1
  H  H122  1  0.87455000  0.26485000  0.19085000  1
  H  H123  1  0.69401000  0.25083000  0.21399000  1
  H  H124  1  0.04339000  0.81520000  0.87400000  1
  H  H125  1  0.32553000  0.72064000  0.83310000  1
  H  H126  1  0.20596000  0.75641000  0.77403000  1
  H  H127  1  0.14499000  0.70663000  0.85623000  1
  H  H128  1  0.85859000  0.87400000  0.18480000  1
  H  H129  1  0.84966000  0.85476000  0.29248000  1
  H  H130  1  0.04338000  0.83509000  0.28057000  1
  H  H131  1  0.96711000  0.77351000  0.24327000  1
  H  H132  1  0.91739000  0.12600000  0.81520000  1
  H  H133  1  0.13660000  0.19286000  0.73636000  1
  H  H134  1  0.94289000  0.21251000  0.74827000  1
  H  H135  1  0.06033000  0.13128000  0.69906000  1
  O  O136  1  0.43250000  0.95590000  0.92990000  1
  O  O137  1  0.44490000  0.81276000  0.96644000  1
  O  O138  1  0.31830000  0.04410000  0.07010000  1
  O  O139  1  0.22410000  0.18724000  0.03356000  1
  O  O140  1  0.38840000  0.92990000  0.04410000  1
  O  O141  1  0.25766000  0.96644000  0.18724000  1
  O  O142  1  0.36240000  0.07010000  0.95590000  1
  O  O143  1  0.41134000  0.03356000  0.81276000  1
  O  O144  1  0.06750000  0.07010000  0.04410000  1
  O  O145  1  0.05510000  0.03356000  0.18724000  1
  O  O146  1  0.18170000  0.92990000  0.95590000  1
  O  O147  1  0.27590000  0.96644000  0.81276000  1
  O  O148  1  0.11160000  0.95590000  0.07010000  1
  O  O149  1  0.24234000  0.81276000  0.03356000  1
  O  O150  1  0.13760000  0.04410000  0.92990000  1
  O  O151  1  0.08866000  0.18724000  0.96644000  1
  O  O152  1  0.56750000  0.04410000  0.07010000  1
  O  O153  1  0.55510000  0.18724000  0.03356000  1
  O  O154  1  0.68170000  0.95590000  0.92990000  1
  O  O155  1  0.77590000  0.81276000  0.96644000  1
  O  O156  1  0.61160000  0.07010000  0.95590000  1
  O  O157  1  0.74234000  0.03356000  0.81276000  1
  O  O158  1  0.63760000  0.92990000  0.04410000  1
  O  O159  1  0.58866000  0.96644000  0.18724000  1
  O  O160  1  0.93250000  0.92990000  0.95590000  1
  O  O161  1  0.94490000  0.96644000  0.81276000  1
  O  O162  1  0.81830000  0.07010000  0.04410000  1
  O  O163  1  0.72410000  0.03356000  0.18724000  1
  O  O164  1  0.88840000  0.04410000  0.92990000  1
  O  O165  1  0.75766000  0.18724000  0.96644000  1
  O  O166  1  0.86240000  0.95590000  0.07010000  1
  O  O167  1  0.91134000  0.81276000  0.03356000  1
  O  O168  1  0.64460000  0.83900000  0.87180000  1
  O  O169  1  0.62619000  0.94072000  0.80690000  1
  O  O170  1  0.35540000  0.16100000  0.12820000  1
  O  O171  1  0.37381000  0.05928000  0.19310000  1
  O  O172  1  0.48360000  0.87180000  0.16100000  1
  O  O173  1  0.56691000  0.80690000  0.05928000  1
  O  O174  1  0.51640000  0.12820000  0.83900000  1
  O  O175  1  0.43309000  0.19310000  0.94072000  1
  O  O176  1  0.85540000  0.12820000  0.16100000  1
  O  O177  1  0.87381000  0.19310000  0.05928000  1
  O  O178  1  0.14460000  0.87180000  0.83900000  1
  O  O179  1  0.12619000  0.80690000  0.94072000  1
  O  O180  1  0.01640000  0.83900000  0.12820000  1
  O  O181  1  0.93309000  0.94072000  0.19310000  1
  O  O182  1  0.98360000  0.16100000  0.87180000  1
  O  O183  1  0.06691000  0.05928000  0.80690000  1
  Zr  Zr184  1  0.25000000  0.00000000  0.00000000  1
  Zr  Zr185  1  0.75000000  0.00000000  0.00000000  1
  Zr  Zr186  1  0.57666000  0.87250000  0.97418000  1
  Zr  Zr187  1  0.42334000  0.12750000  0.02582000  1
  Zr  Zr188  1  0.44916000  0.97418000  0.12750000  1
  Zr  Zr189  1  0.55084000  0.02582000  0.87250000  1
  Zr  Zr190  1  0.92334000  0.02582000  0.12750000  1
  Zr  Zr191  1  0.07666000  0.97418000  0.87250000  1
  Zr  Zr192  1  0.05084000  0.87250000  0.02582000  1
  Zr  Zr193  1  0.94916000  0.12750000  0.97418000  1
