# generated using pymatgen
data_Zr5H20(CO)24
_symmetry_space_group_name_H-M   'P 1'
_cell_length_a   10.17790000
_cell_length_b   15.29105239
_cell_length_c   15.29105239
_cell_angle_alpha   83.64089151
_cell_angle_beta   70.56083878
_cell_angle_gamma   70.56083878
_symmetry_Int_Tables_number   1
_chemical_formula_structural   Zr5H20(CO)24
_chemical_formula_sum   'Zr10 H40 C48 O48'
_cell_volume   2116.17747924
_cell_formula_units_Z   2
loop_
 _symmetry_equiv_pos_site_id
 _symmetry_equiv_pos_as_xyz
  1  'x, y, z'
loop_
 _atom_site_type_symbol
 _atom_site_label
 _atom_site_symmetry_multiplicity
 _atom_site_fract_x
 _atom_site_fract_y
 _atom_site_fract_z
 _atom_site_occupancy
  C  C0  1  0.58828000  0.54756000  0.94468000  1
  C  C1  1  0.08052000  0.45244000  0.05532000  1
  C  C2  1  0.13584000  0.94468000  0.45244000  1
  C  C3  1  0.53296000  0.05532000  0.54756000  1
  C  C4  1  0.91172000  0.05532000  0.45244000  1
  C  C5  1  0.41948000  0.94468000  0.54756000  1
  C  C6  1  0.36416000  0.54756000  0.05532000  1
  C  C7  1  0.96704000  0.45244000  0.94468000  1
  C  C8  1  0.41172000  0.45244000  0.05532000  1
  C  C9  1  0.91948000  0.54756000  0.94468000  1
  C  C10  1  0.86416000  0.05532000  0.54756000  1
  C  C11  1  0.46704000  0.94468000  0.45244000  1
  C  C12  1  0.08828000  0.94468000  0.54756000  1
  C  C13  1  0.58052000  0.05532000  0.45244000  1
  C  C14  1  0.63584000  0.45244000  0.94468000  1
  C  C15  1  0.03296000  0.54756000  0.05532000  1
  C  C16  1  0.71448000  0.83070000  0.74034000  1
  C  C17  1  0.78699000  0.77139000  0.65463000  1
  C  C18  1  0.28552000  0.16930000  0.25966000  1
  C  C19  1  0.21301000  0.22861000  0.34537000  1
  C  C20  1  0.54518000  0.74034000  0.16930000  1
  C  C21  1  0.55838000  0.65463000  0.22861000  1
  C  C22  1  0.45482000  0.25966000  0.83070000  1
  C  C23  1  0.44162000  0.34537000  0.77139000  1
  C  C24  1  0.78552000  0.25966000  0.16930000  1
  C  C25  1  0.71301000  0.34537000  0.22861000  1
  C  C26  1  0.21448000  0.74034000  0.83070000  1
  C  C27  1  0.28699000  0.65463000  0.77139000  1
  C  C28  1  0.95482000  0.83070000  0.25966000  1
  C  C29  1  0.94162000  0.77139000  0.34537000  1
  C  C30  1  0.04518000  0.16930000  0.74034000  1
  C  C31  1  0.05838000  0.22861000  0.65463000  1
  C  C32  1  0.39839000  0.70322000  1.00000000  1
  C  C33  1  0.45119000  0.59762000  1.00000000  1
  C  C34  1  0.10161000  0.29678000  1.00000000  1
  C  C35  1  0.04881000  0.40238000  1.00000000  1
  C  C36  1  0.10161000  0.00000000  0.29678000  1
  C  C37  1  0.04881000  0.00000000  0.40238000  1
  C  C38  1  0.39839000  0.00000000  0.70322000  1
  C  C39  1  0.45119000  0.00000000  0.59762000  1
  C  C40  1  0.60161000  0.29678000  1.00000000  1
  C  C41  1  0.54881000  0.40238000  1.00000000  1
  C  C42  1  0.89839000  0.70322000  1.00000000  1
  C  C43  1  0.95119000  0.59762000  1.00000000  1
  C  C44  1  0.89839000  0.00000000  0.70322000  1
  C  C45  1  0.95119000  0.00000000  0.59762000  1
  C  C46  1  0.60161000  0.00000000  0.29678000  1
  C  C47  1  0.54881000  0.00000000  0.40238000  1
  H  H48  1  0.66537000  0.58513000  0.89735000  1
  H  H49  1  0.14785000  0.41487000  0.10265000  1
  H  H50  1  0.25050000  0.89735000  0.41487000  1
  H  H51  1  0.56272000  0.10265000  0.58513000  1
  H  H52  1  0.83463000  0.10265000  0.41487000  1
  H  H53  1  0.35215000  0.89735000  0.58513000  1
  H  H54  1  0.24950000  0.58513000  0.10265000  1
  H  H55  1  0.93728000  0.41487000  0.89735000  1
  H  H56  1  0.33463000  0.41487000  0.10265000  1
  H  H57  1  0.85215000  0.58513000  0.89735000  1
  H  H58  1  0.74950000  0.10265000  0.58513000  1
  H  H59  1  0.43728000  0.89735000  0.41487000  1
  H  H60  1  0.16537000  0.89735000  0.58513000  1
  H  H61  1  0.64785000  0.10265000  0.41487000  1
  H  H62  1  0.75050000  0.41487000  0.89735000  1
  H  H63  1  0.06272000  0.58513000  0.10265000  1
  H  H64  1  0.90991000  0.74102000  0.64360000  1
  H  H65  1  0.76807000  0.81546000  0.59208000  1
  H  H66  1  0.73799000  0.71270000  0.66320000  1
  H  H67  1  0.15742000  0.30268000  0.32616000  1
  H  H68  1  0.29927000  0.22822000  0.37768000  1
  H  H69  1  0.12735000  0.19991000  0.39727000  1
  H  H70  1  0.67865000  0.61856000  0.22280000  1
  H  H71  1  0.51445000  0.60560000  0.20408000  1
  H  H72  1  0.49206000  0.67470000  0.30394000  1
  H  H73  1  0.39101000  0.33969000  0.71687000  1
  H  H74  1  0.55522000  0.35264000  0.73558000  1
  H  H75  1  0.36862000  0.40879000  0.81673000  1
  H  H76  1  0.67561000  0.40792000  0.18454000  1
  H  H77  1  0.79453000  0.35640000  0.25898000  1
  H  H78  1  0.61389000  0.33680000  0.28730000  1
  H  H79  1  0.40517000  0.62232000  0.77178000  1
  H  H80  1  0.28626000  0.67384000  0.69732000  1
  H  H81  1  0.22453000  0.60273000  0.80009000  1
  H  H82  1  0.82413000  0.79592000  0.39440000  1
  H  H83  1  0.02001000  0.77720000  0.38144000  1
  H  H84  1  0.97070000  0.69606000  0.32530000  1
  H  H85  1  0.14344000  0.26442000  0.64736000  1
  H  H86  1  0.94757000  0.28313000  0.66031000  1
  H  H87  1  0.09414000  0.18327000  0.59121000  1
  O  O88  1  0.45397000  0.93684000  0.90460000  1
  O  O89  1  0.48610000  0.74471000  0.94681000  1
  O  O90  1  0.29541000  0.06316000  0.09540000  1
  O  O91  1  0.17762000  0.25529000  0.05319000  1
  O  O92  1  0.39081000  0.90460000  0.06316000  1
  O  O93  1  0.23081000  0.94681000  0.25529000  1
  O  O94  1  0.35857000  0.09540000  0.93684000  1
  O  O95  1  0.43291000  0.05319000  0.74471000  1
  O  O96  1  0.04603000  0.09540000  0.06316000  1
  O  O97  1  0.01390000  0.05319000  0.25529000  1
  O  O98  1  0.20459000  0.90460000  0.93684000  1
  O  O99  1  0.32238000  0.94681000  0.74471000  1
  O  O100  1  0.10919000  0.93684000  0.09540000  1
  O  O101  1  0.26919000  0.74471000  0.05319000  1
  O  O102  1  0.14143000  0.06316000  0.90460000  1
  O  O103  1  0.06709000  0.25529000  0.94681000  1
  O  O104  1  0.54603000  0.06316000  0.09540000  1
  O  O105  1  0.51390000  0.25529000  0.05319000  1
  O  O106  1  0.70459000  0.93684000  0.90460000  1
  O  O107  1  0.82238000  0.74471000  0.94681000  1
  O  O108  1  0.60919000  0.09540000  0.93684000  1
  O  O109  1  0.76919000  0.05319000  0.74471000  1
  O  O110  1  0.64143000  0.90460000  0.06316000  1
  O  O111  1  0.56709000  0.94681000  0.25529000  1
  O  O112  1  0.95397000  0.90460000  0.93684000  1
  O  O113  1  0.98610000  0.94681000  0.74471000  1
  O  O114  1  0.79541000  0.09540000  0.06316000  1
  O  O115  1  0.67762000  0.05319000  0.25529000  1
  O  O116  1  0.89081000  0.06316000  0.90460000  1
  O  O117  1  0.73081000  0.25529000  0.94681000  1
  O  O118  1  0.85857000  0.93684000  0.09540000  1
  O  O119  1  0.93291000  0.74471000  0.05319000  1
  O  O120  1  0.69611000  0.78818000  0.81960000  1
  O  O121  1  0.59541000  0.72832000  0.08086000  1
  O  O122  1  0.30389000  0.21182000  0.18040000  1
  O  O123  1  0.40459000  0.27168000  0.91914000  1
  O  O124  1  0.48429000  0.81960000  0.21182000  1
  O  O125  1  0.32373000  0.08086000  0.27168000  1
  O  O126  1  0.51571000  0.18040000  0.78818000  1
  O  O127  1  0.67627000  0.91914000  0.72832000  1
  O  O128  1  0.80389000  0.18040000  0.21182000  1
  O  O129  1  0.90459000  0.91914000  0.27168000  1
  O  O130  1  0.19611000  0.81960000  0.78818000  1
  O  O131  1  0.09541000  0.08086000  0.72832000  1
  O  O132  1  0.01571000  0.78818000  0.18040000  1
  O  O133  1  0.17627000  0.72832000  0.91914000  1
  O  O134  1  0.98429000  0.21182000  0.81960000  1
  O  O135  1  0.82373000  0.27168000  0.08086000  1
  Zr  Zr136  1  0.25000000  0.00000000  0.00000000  1
  Zr  Zr137  1  0.75000000  0.00000000  0.00000000  1
  Zr  Zr138  1  0.60142000  0.83123000  0.96593000  1
  Zr  Zr139  1  0.39858000  0.16877000  0.03407000  1
  Zr  Zr140  1  0.43265000  0.96593000  0.16877000  1
  Zr  Zr141  1  0.56735000  0.03407000  0.83123000  1
  Zr  Zr142  1  0.89858000  0.03407000  0.16877000  1
  Zr  Zr143  1  0.10142000  0.96593000  0.83123000  1
  Zr  Zr144  1  0.06735000  0.83123000  0.03407000  1
  Zr  Zr145  1  0.93265000  0.16877000  0.96593000  1
