# generated using pymatgen
data_Zr3H18C42S3O22
_symmetry_space_group_name_H-M   'P 1'
_cell_length_a   26.34780000
_cell_length_b   26.34780000
_cell_length_c   26.34780000
_cell_angle_alpha   90.00000000
_cell_angle_beta   90.00000000
_cell_angle_gamma   90.00000000
_symmetry_Int_Tables_number   1
_chemical_formula_structural   Zr3H18C42S3O22
_chemical_formula_sum   'Zr24 H144 C336 S24 O176'
_cell_volume   18290.81572909
_cell_formula_units_Z   8
loop_
 _symmetry_equiv_pos_site_id
 _symmetry_equiv_pos_as_xyz
  1  'x, y, z'
loop_
 _atom_site_type_symbol
 _atom_site_label
 _atom_site_symmetry_multiplicity
 _atom_site_fract_x
 _atom_site_fract_y
 _atom_site_fract_z
 _atom_site_occupancy
  Zr  Zr0  1  0.01164000  0.90769000  0.98659000  1
  Zr  Zr1  1  0.48836000  0.09231000  0.48659000  1
  Zr  Zr2  1  0.51164000  0.59231000  0.01341000  1
  Zr  Zr3  1  0.98836000  0.40769000  0.51341000  1
  Zr  Zr4  1  0.98659000  0.01164000  0.90769000  1
  Zr  Zr5  1  0.51341000  0.98836000  0.40769000  1
  Zr  Zr6  1  0.48659000  0.48836000  0.09231000  1
  Zr  Zr7  1  0.01341000  0.51164000  0.59231000  1
  Zr  Zr8  1  0.90769000  0.98659000  0.01164000  1
  Zr  Zr9  1  0.40769000  0.51341000  0.98836000  1
  Zr  Zr10  1  0.09231000  0.48659000  0.48836000  1
  Zr  Zr11  1  0.59231000  0.01341000  0.51164000  1
  Zr  Zr12  1  0.98836000  0.09231000  0.01341000  1
  Zr  Zr13  1  0.51164000  0.90769000  0.51341000  1
  Zr  Zr14  1  0.48836000  0.40769000  0.98659000  1
  Zr  Zr15  1  0.01164000  0.59231000  0.48659000  1
  Zr  Zr16  1  0.01341000  0.98836000  0.09231000  1
  Zr  Zr17  1  0.48659000  0.01164000  0.59231000  1
  Zr  Zr18  1  0.51341000  0.51164000  0.90769000  1
  Zr  Zr19  1  0.98659000  0.48836000  0.40769000  1
  Zr  Zr20  1  0.09231000  0.01341000  0.98836000  1
  Zr  Zr21  1  0.59231000  0.48659000  0.01164000  1
  Zr  Zr22  1  0.90769000  0.51341000  0.51164000  1
  Zr  Zr23  1  0.40769000  0.98659000  0.48836000  1
  H  H24  1  0.79730000  0.85920000  0.00840000  1
  H  H25  1  0.80270000  0.63100000  0.01300000  1
  H  H26  1  0.73190000  0.57710000  0.01750000  1
  H  H27  1  0.92020000  0.76720000  0.99670000  1
  H  H28  1  0.63930000  0.70020000  0.02440000  1
  H  H29  1  0.86860000  0.69590000  0.00500000  1
  H  H30  1  0.70270000  0.14080000  0.50840000  1
  H  H31  1  0.69730000  0.36900000  0.51300000  1
  H  H32  1  0.76810000  0.42290000  0.51750000  1
  H  H33  1  0.57980000  0.23280000  0.49670000  1
  H  H34  1  0.86070000  0.29980000  0.52440000  1
  H  H35  1  0.63140000  0.30410000  0.50500000  1
  H  H36  1  0.29730000  0.64080000  0.99160000  1
  H  H37  1  0.30270000  0.86900000  0.98700000  1
  H  H38  1  0.23190000  0.92290000  0.98250000  1
  H  H39  1  0.42020000  0.73280000  0.00330000  1
  H  H40  1  0.13930000  0.79980000  0.97560000  1
  H  H41  1  0.36860000  0.80410000  0.99500000  1
  H  H42  1  0.20270000  0.35920000  0.49160000  1
  H  H43  1  0.19730000  0.13100000  0.48700000  1
  H  H44  1  0.26810000  0.07710000  0.48250000  1
  H  H45  1  0.07980000  0.26720000  0.50330000  1
  H  H46  1  0.36070000  0.20020000  0.47560000  1
  H  H47  1  0.13140000  0.19590000  0.49500000  1
  H  H48  1  0.00840000  0.79730000  0.85920000  1
  H  H49  1  0.01300000  0.80270000  0.63100000  1
  H  H50  1  0.01750000  0.73190000  0.57710000  1
  H  H51  1  0.99670000  0.92020000  0.76720000  1
  H  H52  1  0.02440000  0.63930000  0.70020000  1
  H  H53  1  0.00500000  0.86860000  0.69590000  1
  H  H54  1  0.49160000  0.20270000  0.35920000  1
  H  H55  1  0.48700000  0.19730000  0.13100000  1
  H  H56  1  0.48250000  0.26810000  0.07710000  1
  H  H57  1  0.50330000  0.07980000  0.26720000  1
  H  H58  1  0.47560000  0.36070000  0.20020000  1
  H  H59  1  0.49500000  0.13140000  0.19590000  1
  H  H60  1  0.50840000  0.70270000  0.14080000  1
  H  H61  1  0.51300000  0.69730000  0.36900000  1
  H  H62  1  0.51750000  0.76810000  0.42290000  1
  H  H63  1  0.49670000  0.57980000  0.23280000  1
  H  H64  1  0.52440000  0.86070000  0.29980000  1
  H  H65  1  0.50500000  0.63140000  0.30410000  1
  H  H66  1  0.99160000  0.29730000  0.64080000  1
  H  H67  1  0.98700000  0.30270000  0.86900000  1
  H  H68  1  0.98250000  0.23190000  0.92290000  1
  H  H69  1  0.00330000  0.42020000  0.73280000  1
  H  H70  1  0.97560000  0.13930000  0.79980000  1
  H  H71  1  0.99500000  0.36860000  0.80410000  1
  H  H72  1  0.85920000  0.00840000  0.79730000  1
  H  H73  1  0.63100000  0.01300000  0.80270000  1
  H  H74  1  0.57710000  0.01750000  0.73190000  1
  H  H75  1  0.76720000  0.99670000  0.92020000  1
  H  H76  1  0.70020000  0.02440000  0.63930000  1
  H  H77  1  0.69590000  0.00500000  0.86860000  1
  H  H78  1  0.35920000  0.49160000  0.20270000  1
  H  H79  1  0.13100000  0.48700000  0.19730000  1
  H  H80  1  0.07710000  0.48250000  0.26810000  1
  H  H81  1  0.26720000  0.50330000  0.07980000  1
  H  H82  1  0.20020000  0.47560000  0.36070000  1
  H  H83  1  0.19590000  0.49500000  0.13140000  1
  H  H84  1  0.14080000  0.50840000  0.70270000  1
  H  H85  1  0.36900000  0.51300000  0.69730000  1
  H  H86  1  0.42290000  0.51750000  0.76810000  1
  H  H87  1  0.23280000  0.49670000  0.57980000  1
  H  H88  1  0.29980000  0.52440000  0.86070000  1
  H  H89  1  0.30410000  0.50500000  0.63140000  1
  H  H90  1  0.64080000  0.99160000  0.29730000  1
  H  H91  1  0.86900000  0.98700000  0.30270000  1
  H  H92  1  0.92290000  0.98250000  0.23190000  1
  H  H93  1  0.73280000  0.00330000  0.42020000  1
  H  H94  1  0.79980000  0.97560000  0.13930000  1
  H  H95  1  0.80410000  0.99500000  0.36860000  1
  H  H96  1  0.20270000  0.14080000  0.99160000  1
  H  H97  1  0.19730000  0.36900000  0.98700000  1
  H  H98  1  0.26810000  0.42290000  0.98250000  1
  H  H99  1  0.07980000  0.23280000  0.00330000  1
  H  H100  1  0.36070000  0.29980000  0.97560000  1
  H  H101  1  0.13140000  0.30410000  0.99500000  1
  H  H102  1  0.29730000  0.85920000  0.49160000  1
  H  H103  1  0.30270000  0.63100000  0.48700000  1
  H  H104  1  0.23190000  0.57710000  0.48250000  1
  H  H105  1  0.42020000  0.76720000  0.50330000  1
  H  H106  1  0.13930000  0.70020000  0.47560000  1
  H  H107  1  0.36860000  0.69590000  0.49500000  1
  H  H108  1  0.70270000  0.35920000  0.00840000  1
  H  H109  1  0.69730000  0.13100000  0.01300000  1
  H  H110  1  0.76810000  0.07710000  0.01750000  1
  H  H111  1  0.57980000  0.26720000  0.99670000  1
  H  H112  1  0.86070000  0.20020000  0.02440000  1
  H  H113  1  0.63140000  0.19590000  0.00500000  1
  H  H114  1  0.79730000  0.64080000  0.50840000  1
  H  H115  1  0.80270000  0.86900000  0.51300000  1
  H  H116  1  0.73190000  0.92290000  0.51750000  1
  H  H117  1  0.92020000  0.73280000  0.49670000  1
  H  H118  1  0.63930000  0.79980000  0.52440000  1
  H  H119  1  0.86860000  0.80410000  0.50500000  1
  H  H120  1  0.99160000  0.20270000  0.14080000  1
  H  H121  1  0.98700000  0.19730000  0.36900000  1
  H  H122  1  0.98250000  0.26810000  0.42290000  1
  H  H123  1  0.00330000  0.07980000  0.23280000  1
  H  H124  1  0.97560000  0.36070000  0.29980000  1
  H  H125  1  0.99500000  0.13140000  0.30410000  1
  H  H126  1  0.50840000  0.79730000  0.64080000  1
  H  H127  1  0.51300000  0.80270000  0.86900000  1
  H  H128  1  0.51750000  0.73190000  0.92290000  1
  H  H129  1  0.49670000  0.92020000  0.73280000  1
  H  H130  1  0.52440000  0.63930000  0.79980000  1
  H  H131  1  0.50500000  0.86860000  0.80410000  1
  H  H132  1  0.49160000  0.29730000  0.85920000  1
  H  H133  1  0.48700000  0.30270000  0.63100000  1
  H  H134  1  0.48250000  0.23190000  0.57710000  1
  H  H135  1  0.50330000  0.42020000  0.76720000  1
  H  H136  1  0.47560000  0.13930000  0.70020000  1
  H  H137  1  0.49500000  0.36860000  0.69590000  1
  H  H138  1  0.00840000  0.70270000  0.35920000  1
  H  H139  1  0.01300000  0.69730000  0.13100000  1
  H  H140  1  0.01750000  0.76810000  0.07710000  1
  H  H141  1  0.99670000  0.57980000  0.26720000  1
  H  H142  1  0.02440000  0.86070000  0.20020000  1
  H  H143  1  0.00500000  0.63140000  0.19590000  1
  H  H144  1  0.14080000  0.99160000  0.20270000  1
  H  H145  1  0.36900000  0.98700000  0.19730000  1
  H  H146  1  0.42290000  0.98250000  0.26810000  1
  H  H147  1  0.23280000  0.00330000  0.07980000  1
  H  H148  1  0.29980000  0.97560000  0.36070000  1
  H  H149  1  0.30410000  0.99500000  0.13140000  1
  H  H150  1  0.64080000  0.50840000  0.79730000  1
  H  H151  1  0.86900000  0.51300000  0.80270000  1
  H  H152  1  0.92290000  0.51750000  0.73190000  1
  H  H153  1  0.73280000  0.49670000  0.92020000  1
  H  H154  1  0.79980000  0.52440000  0.63930000  1
  H  H155  1  0.80410000  0.50500000  0.86860000  1
  H  H156  1  0.85920000  0.49160000  0.29730000  1
  H  H157  1  0.63100000  0.48700000  0.30270000  1
  H  H158  1  0.57710000  0.48250000  0.23190000  1
  H  H159  1  0.76720000  0.50330000  0.42020000  1
  H  H160  1  0.70020000  0.47560000  0.13930000  1
  H  H161  1  0.69590000  0.49500000  0.36860000  1
  H  H162  1  0.35920000  0.00840000  0.70270000  1
  H  H163  1  0.13100000  0.01300000  0.69730000  1
  H  H164  1  0.07710000  0.01750000  0.76810000  1
  H  H165  1  0.26720000  0.99670000  0.57980000  1
  H  H166  1  0.20020000  0.02440000  0.86070000  1
  H  H167  1  0.19590000  0.00500000  0.63140000  1
  C  C168  1  0.63287000  0.59912000  0.02486000  1
  C  C169  1  0.89848000  0.86570000  0.99929000  1
  C  C170  1  0.78433000  0.78330000  0.01250000  1
  C  C171  1  0.67878000  0.63319000  0.02260000  1
  C  C172  1  0.81238000  0.82642000  0.00810000  1
  C  C173  1  0.76960000  0.64530000  0.01540000  1
  C  C174  1  0.72731000  0.61290000  0.01840000  1
  C  C175  1  0.88470000  0.77160000  0.00110000  1
  C  C176  1  0.80310000  0.73460000  0.01060000  1
  C  C177  1  0.86518000  0.81962000  0.00290000  1
  C  C178  1  0.67220000  0.68544000  0.02240000  1
  C  C179  1  0.71490000  0.71490000  0.01930000  1
  C  C180  1  0.76410000  0.69580000  0.01580000  1
  C  C181  1  0.85400000  0.72890000  0.00550000  1
  C  C182  1  0.86713000  0.40088000  0.52486000  1
  C  C183  1  0.60152000  0.13430000  0.49929000  1
  C  C184  1  0.71567000  0.21670000  0.51250000  1
  C  C185  1  0.82122000  0.36681000  0.52260000  1
  C  C186  1  0.68762000  0.17358000  0.50810000  1
  C  C187  1  0.73040000  0.35470000  0.51540000  1
  C  C188  1  0.77269000  0.38710000  0.51840000  1
  C  C189  1  0.61530000  0.22840000  0.50110000  1
  C  C190  1  0.69690000  0.26540000  0.51060000  1
  C  C191  1  0.63482000  0.18038000  0.50290000  1
  C  C192  1  0.82780000  0.31456000  0.52240000  1
  C  C193  1  0.78510000  0.28510000  0.51930000  1
  C  C194  1  0.73590000  0.30420000  0.51580000  1
  C  C195  1  0.64600000  0.27110000  0.50550000  1
  C  C196  1  0.13287000  0.90088000  0.97514000  1
  C  C197  1  0.39848000  0.63430000  0.00071000  1
  C  C198  1  0.28433000  0.71670000  0.98750000  1
  C  C199  1  0.17878000  0.86681000  0.97740000  1
  C  C200  1  0.31238000  0.67358000  0.99190000  1
  C  C201  1  0.26960000  0.85470000  0.98460000  1
  C  C202  1  0.22731000  0.88710000  0.98160000  1
  C  C203  1  0.38470000  0.72840000  0.99890000  1
  C  C204  1  0.30310000  0.76540000  0.98940000  1
  C  C205  1  0.36518000  0.68038000  0.99710000  1
  C  C206  1  0.17220000  0.81456000  0.97760000  1
  C  C207  1  0.21490000  0.78510000  0.98070000  1
  C  C208  1  0.26410000  0.80420000  0.98420000  1
  C  C209  1  0.35400000  0.77110000  0.99450000  1
  C  C210  1  0.36713000  0.09912000  0.47514000  1
  C  C211  1  0.10152000  0.36570000  0.50071000  1
  C  C212  1  0.21567000  0.28330000  0.48750000  1
  C  C213  1  0.32122000  0.13319000  0.47740000  1
  C  C214  1  0.18762000  0.32642000  0.49190000  1
  C  C215  1  0.23040000  0.14530000  0.48460000  1
  C  C216  1  0.27269000  0.11290000  0.48160000  1
  C  C217  1  0.11530000  0.27160000  0.49890000  1
  C  C218  1  0.19690000  0.23460000  0.48940000  1
  C  C219  1  0.13482000  0.31962000  0.49710000  1
  C  C220  1  0.32780000  0.18544000  0.47760000  1
  C  C221  1  0.28510000  0.21490000  0.48070000  1
  C  C222  1  0.23590000  0.19580000  0.48420000  1
  C  C223  1  0.14600000  0.22890000  0.49450000  1
  C  C224  1  0.02486000  0.63287000  0.59912000  1
  C  C225  1  0.99929000  0.89848000  0.86570000  1
  C  C226  1  0.01250000  0.78433000  0.78330000  1
  C  C227  1  0.02260000  0.67878000  0.63319000  1
  C  C228  1  0.00810000  0.81238000  0.82642000  1
  C  C229  1  0.01540000  0.76960000  0.64530000  1
  C  C230  1  0.01840000  0.72731000  0.61290000  1
  C  C231  1  0.00110000  0.88470000  0.77160000  1
  C  C232  1  0.01060000  0.80310000  0.73460000  1
  C  C233  1  0.00290000  0.86518000  0.81962000  1
  C  C234  1  0.02240000  0.67220000  0.68544000  1
  C  C235  1  0.01930000  0.71490000  0.71490000  1
  C  C236  1  0.01580000  0.76410000  0.69580000  1
  C  C237  1  0.00550000  0.85400000  0.72890000  1
  C  C238  1  0.47514000  0.36713000  0.09912000  1
  C  C239  1  0.50071000  0.10152000  0.36570000  1
  C  C240  1  0.48750000  0.21567000  0.28330000  1
  C  C241  1  0.47740000  0.32122000  0.13319000  1
  C  C242  1  0.49190000  0.18762000  0.32642000  1
  C  C243  1  0.48460000  0.23040000  0.14530000  1
  C  C244  1  0.48160000  0.27269000  0.11290000  1
  C  C245  1  0.49890000  0.11530000  0.27160000  1
  C  C246  1  0.48940000  0.19690000  0.23460000  1
  C  C247  1  0.49710000  0.13482000  0.31962000  1
  C  C248  1  0.47760000  0.32780000  0.18544000  1
  C  C249  1  0.48070000  0.28510000  0.21490000  1
  C  C250  1  0.48420000  0.23590000  0.19580000  1
  C  C251  1  0.49450000  0.14600000  0.22890000  1
  C  C252  1  0.52486000  0.86713000  0.40088000  1
  C  C253  1  0.49929000  0.60152000  0.13430000  1
  C  C254  1  0.51250000  0.71567000  0.21670000  1
  C  C255  1  0.52260000  0.82122000  0.36681000  1
  C  C256  1  0.50810000  0.68762000  0.17358000  1
  C  C257  1  0.51540000  0.73040000  0.35470000  1
  C  C258  1  0.51840000  0.77269000  0.38710000  1
  C  C259  1  0.50110000  0.61530000  0.22840000  1
  C  C260  1  0.51060000  0.69690000  0.26540000  1
  C  C261  1  0.50290000  0.63482000  0.18038000  1
  C  C262  1  0.52240000  0.82780000  0.31456000  1
  C  C263  1  0.51930000  0.78510000  0.28510000  1
  C  C264  1  0.51580000  0.73590000  0.30420000  1
  C  C265  1  0.50550000  0.64600000  0.27110000  1
  C  C266  1  0.97514000  0.13287000  0.90088000  1
  C  C267  1  0.00071000  0.39848000  0.63430000  1
  C  C268  1  0.98750000  0.28433000  0.71670000  1
  C  C269  1  0.97740000  0.17878000  0.86681000  1
  C  C270  1  0.99190000  0.31238000  0.67358000  1
  C  C271  1  0.98460000  0.26960000  0.85470000  1
  C  C272  1  0.98160000  0.22731000  0.88710000  1
  C  C273  1  0.99890000  0.38470000  0.72840000  1
  C  C274  1  0.98940000  0.30310000  0.76540000  1
  C  C275  1  0.99710000  0.36518000  0.68038000  1
  C  C276  1  0.97760000  0.17220000  0.81456000  1
  C  C277  1  0.98070000  0.21490000  0.78510000  1
  C  C278  1  0.98420000  0.26410000  0.80420000  1
  C  C279  1  0.99450000  0.35400000  0.77110000  1
  C  C280  1  0.59912000  0.02486000  0.63287000  1
  C  C281  1  0.86570000  0.99929000  0.89848000  1
  C  C282  1  0.78330000  0.01250000  0.78433000  1
  C  C283  1  0.63319000  0.02260000  0.67878000  1
  C  C284  1  0.82642000  0.00810000  0.81238000  1
  C  C285  1  0.64530000  0.01540000  0.76960000  1
  C  C286  1  0.61290000  0.01840000  0.72731000  1
  C  C287  1  0.77160000  0.00110000  0.88470000  1
  C  C288  1  0.73460000  0.01060000  0.80310000  1
  C  C289  1  0.81962000  0.00290000  0.86518000  1
  C  C290  1  0.68544000  0.02240000  0.67220000  1
  C  C291  1  0.71490000  0.01930000  0.71490000  1
  C  C292  1  0.69580000  0.01580000  0.76410000  1
  C  C293  1  0.72890000  0.00550000  0.85400000  1
  C  C294  1  0.09912000  0.47514000  0.36713000  1
  C  C295  1  0.36570000  0.50071000  0.10152000  1
  C  C296  1  0.28330000  0.48750000  0.21567000  1
  C  C297  1  0.13319000  0.47740000  0.32122000  1
  C  C298  1  0.32642000  0.49190000  0.18762000  1
  C  C299  1  0.14530000  0.48460000  0.23040000  1
  C  C300  1  0.11290000  0.48160000  0.27269000  1
  C  C301  1  0.27160000  0.49890000  0.11530000  1
  C  C302  1  0.23460000  0.48940000  0.19690000  1
  C  C303  1  0.31962000  0.49710000  0.13482000  1
  C  C304  1  0.18544000  0.47760000  0.32780000  1
  C  C305  1  0.21490000  0.48070000  0.28510000  1
  C  C306  1  0.19580000  0.48420000  0.23590000  1
  C  C307  1  0.22890000  0.49450000  0.14600000  1
  C  C308  1  0.40088000  0.52486000  0.86713000  1
  C  C309  1  0.13430000  0.49929000  0.60152000  1
  C  C310  1  0.21670000  0.51250000  0.71567000  1
  C  C311  1  0.36681000  0.52260000  0.82122000  1
  C  C312  1  0.17358000  0.50810000  0.68762000  1
  C  C313  1  0.35470000  0.51540000  0.73040000  1
  C  C314  1  0.38710000  0.51840000  0.77269000  1
  C  C315  1  0.22840000  0.50110000  0.61530000  1
  C  C316  1  0.26540000  0.51060000  0.69690000  1
  C  C317  1  0.18038000  0.50290000  0.63482000  1
  C  C318  1  0.31456000  0.52240000  0.82780000  1
  C  C319  1  0.28510000  0.51930000  0.78510000  1
  C  C320  1  0.30420000  0.51580000  0.73590000  1
  C  C321  1  0.27110000  0.50550000  0.64600000  1
  C  C322  1  0.90088000  0.97514000  0.13287000  1
  C  C323  1  0.63430000  0.00071000  0.39848000  1
  C  C324  1  0.71670000  0.98750000  0.28433000  1
  C  C325  1  0.86681000  0.97740000  0.17878000  1
  C  C326  1  0.67358000  0.99190000  0.31238000  1
  C  C327  1  0.85470000  0.98460000  0.26960000  1
  C  C328  1  0.88710000  0.98160000  0.22731000  1
  C  C329  1  0.72840000  0.99890000  0.38470000  1
  C  C330  1  0.76540000  0.98940000  0.30310000  1
  C  C331  1  0.68038000  0.99710000  0.36518000  1
  C  C332  1  0.81456000  0.97760000  0.17220000  1
  C  C333  1  0.78510000  0.98070000  0.21490000  1
  C  C334  1  0.80420000  0.98420000  0.26410000  1
  C  C335  1  0.77110000  0.99450000  0.35400000  1
  C  C336  1  0.36713000  0.40088000  0.97514000  1
  C  C337  1  0.10152000  0.13430000  0.00071000  1
  C  C338  1  0.21567000  0.21670000  0.98750000  1
  C  C339  1  0.32122000  0.36681000  0.97740000  1
  C  C340  1  0.18762000  0.17358000  0.99190000  1
  C  C341  1  0.23040000  0.35470000  0.98460000  1
  C  C342  1  0.27269000  0.38710000  0.98160000  1
  C  C343  1  0.11530000  0.22840000  0.99890000  1
  C  C344  1  0.19690000  0.26540000  0.98940000  1
  C  C345  1  0.13482000  0.18038000  0.99710000  1
  C  C346  1  0.32780000  0.31456000  0.97760000  1
  C  C347  1  0.28510000  0.28510000  0.98070000  1
  C  C348  1  0.23590000  0.30420000  0.98420000  1
  C  C349  1  0.14600000  0.27110000  0.99450000  1
  C  C350  1  0.13287000  0.59912000  0.47514000  1
  C  C351  1  0.39848000  0.86570000  0.50071000  1
  C  C352  1  0.28433000  0.78330000  0.48750000  1
  C  C353  1  0.17878000  0.63319000  0.47740000  1
  C  C354  1  0.31238000  0.82642000  0.49190000  1
  C  C355  1  0.26960000  0.64530000  0.48460000  1
  C  C356  1  0.22731000  0.61290000  0.48160000  1
  C  C357  1  0.38470000  0.77160000  0.49890000  1
  C  C358  1  0.30310000  0.73460000  0.48940000  1
  C  C359  1  0.36518000  0.81962000  0.49710000  1
  C  C360  1  0.17220000  0.68544000  0.47760000  1
  C  C361  1  0.21490000  0.71490000  0.48070000  1
  C  C362  1  0.26410000  0.69580000  0.48420000  1
  C  C363  1  0.35400000  0.72890000  0.49450000  1
  C  C364  1  0.86713000  0.09912000  0.02486000  1
  C  C365  1  0.60152000  0.36570000  0.99929000  1
  C  C366  1  0.71567000  0.28330000  0.01250000  1
  C  C367  1  0.82122000  0.13319000  0.02260000  1
  C  C368  1  0.68762000  0.32642000  0.00810000  1
  C  C369  1  0.73040000  0.14530000  0.01540000  1
  C  C370  1  0.77269000  0.11290000  0.01840000  1
  C  C371  1  0.61530000  0.27160000  0.00110000  1
  C  C372  1  0.69690000  0.23460000  0.01060000  1
  C  C373  1  0.63482000  0.31962000  0.00290000  1
  C  C374  1  0.82780000  0.18544000  0.02240000  1
  C  C375  1  0.78510000  0.21490000  0.01930000  1
  C  C376  1  0.73590000  0.19580000  0.01580000  1
  C  C377  1  0.64600000  0.22890000  0.00550000  1
  C  C378  1  0.63287000  0.90088000  0.52486000  1
  C  C379  1  0.89848000  0.63430000  0.49929000  1
  C  C380  1  0.78433000  0.71670000  0.51250000  1
  C  C381  1  0.67878000  0.86681000  0.52260000  1
  C  C382  1  0.81238000  0.67358000  0.50810000  1
  C  C383  1  0.76960000  0.85470000  0.51540000  1
  C  C384  1  0.72731000  0.88710000  0.51840000  1
  C  C385  1  0.88470000  0.72840000  0.50110000  1
  C  C386  1  0.80310000  0.76540000  0.51060000  1
  C  C387  1  0.86518000  0.68038000  0.50290000  1
  C  C388  1  0.67220000  0.81456000  0.52240000  1
  C  C389  1  0.71490000  0.78510000  0.51930000  1
  C  C390  1  0.76410000  0.80420000  0.51580000  1
  C  C391  1  0.85400000  0.77110000  0.50550000  1
  C  C392  1  0.97514000  0.36713000  0.40088000  1
  C  C393  1  0.00071000  0.10152000  0.13430000  1
  C  C394  1  0.98750000  0.21567000  0.21670000  1
  C  C395  1  0.97740000  0.32122000  0.36681000  1
  C  C396  1  0.99190000  0.18762000  0.17358000  1
  C  C397  1  0.98460000  0.23040000  0.35470000  1
  C  C398  1  0.98160000  0.27269000  0.38710000  1
  C  C399  1  0.99890000  0.11530000  0.22840000  1
  C  C400  1  0.98940000  0.19690000  0.26540000  1
  C  C401  1  0.99710000  0.13482000  0.18038000  1
  C  C402  1  0.97760000  0.32780000  0.31456000  1
  C  C403  1  0.98070000  0.28510000  0.28510000  1
  C  C404  1  0.98420000  0.23590000  0.30420000  1
  C  C405  1  0.99450000  0.14600000  0.27110000  1
  C  C406  1  0.52486000  0.63287000  0.90088000  1
  C  C407  1  0.49929000  0.89848000  0.63430000  1
  C  C408  1  0.51250000  0.78433000  0.71670000  1
  C  C409  1  0.52260000  0.67878000  0.86681000  1
  C  C410  1  0.50810000  0.81238000  0.67358000  1
  C  C411  1  0.51540000  0.76960000  0.85470000  1
  C  C412  1  0.51840000  0.72731000  0.88710000  1
  C  C413  1  0.50110000  0.88470000  0.72840000  1
  C  C414  1  0.51060000  0.80310000  0.76540000  1
  C  C415  1  0.50290000  0.86518000  0.68038000  1
  C  C416  1  0.52240000  0.67220000  0.81456000  1
  C  C417  1  0.51930000  0.71490000  0.78510000  1
  C  C418  1  0.51580000  0.76410000  0.80420000  1
  C  C419  1  0.50550000  0.85400000  0.77110000  1
  C  C420  1  0.47514000  0.13287000  0.59912000  1
  C  C421  1  0.50071000  0.39848000  0.86570000  1
  C  C422  1  0.48750000  0.28433000  0.78330000  1
  C  C423  1  0.47740000  0.17878000  0.63319000  1
  C  C424  1  0.49190000  0.31238000  0.82642000  1
  C  C425  1  0.48460000  0.26960000  0.64530000  1
  C  C426  1  0.48160000  0.22731000  0.61290000  1
  C  C427  1  0.49890000  0.38470000  0.77160000  1
  C  C428  1  0.48940000  0.30310000  0.73460000  1
  C  C429  1  0.49710000  0.36518000  0.81962000  1
  C  C430  1  0.47760000  0.17220000  0.68544000  1
  C  C431  1  0.48070000  0.21490000  0.71490000  1
  C  C432  1  0.48420000  0.26410000  0.69580000  1
  C  C433  1  0.49450000  0.35400000  0.72890000  1
  C  C434  1  0.02486000  0.86713000  0.09912000  1
  C  C435  1  0.99929000  0.60152000  0.36570000  1
  C  C436  1  0.01250000  0.71567000  0.28330000  1
  C  C437  1  0.02260000  0.82122000  0.13319000  1
  C  C438  1  0.00810000  0.68762000  0.32642000  1
  C  C439  1  0.01540000  0.73040000  0.14530000  1
  C  C440  1  0.01840000  0.77269000  0.11290000  1
  C  C441  1  0.00110000  0.61530000  0.27160000  1
  C  C442  1  0.01060000  0.69690000  0.23460000  1
  C  C443  1  0.00290000  0.63482000  0.31962000  1
  C  C444  1  0.02240000  0.82780000  0.18544000  1
  C  C445  1  0.01930000  0.78510000  0.21490000  1
  C  C446  1  0.01580000  0.73590000  0.19580000  1
  C  C447  1  0.00550000  0.64600000  0.22890000  1
  C  C448  1  0.40088000  0.97514000  0.36713000  1
  C  C449  1  0.13430000  0.00071000  0.10152000  1
  C  C450  1  0.21670000  0.98750000  0.21567000  1
  C  C451  1  0.36681000  0.97740000  0.32122000  1
  C  C452  1  0.17358000  0.99190000  0.18762000  1
  C  C453  1  0.35470000  0.98460000  0.23040000  1
  C  C454  1  0.38710000  0.98160000  0.27269000  1
  C  C455  1  0.22840000  0.99890000  0.11530000  1
  C  C456  1  0.26540000  0.98940000  0.19690000  1
  C  C457  1  0.18038000  0.99710000  0.13482000  1
  C  C458  1  0.31456000  0.97760000  0.32780000  1
  C  C459  1  0.28510000  0.98070000  0.28510000  1
  C  C460  1  0.30420000  0.98420000  0.23590000  1
  C  C461  1  0.27110000  0.99450000  0.14600000  1
  C  C462  1  0.90088000  0.52486000  0.63287000  1
  C  C463  1  0.63430000  0.49929000  0.89848000  1
  C  C464  1  0.71670000  0.51250000  0.78433000  1
  C  C465  1  0.86681000  0.52260000  0.67878000  1
  C  C466  1  0.67358000  0.50810000  0.81238000  1
  C  C467  1  0.85470000  0.51540000  0.76960000  1
  C  C468  1  0.88710000  0.51840000  0.72731000  1
  C  C469  1  0.72840000  0.50110000  0.88470000  1
  C  C470  1  0.76540000  0.51060000  0.80310000  1
  C  C471  1  0.68038000  0.50290000  0.86518000  1
  C  C472  1  0.81456000  0.52240000  0.67220000  1
  C  C473  1  0.78510000  0.51930000  0.71490000  1
  C  C474  1  0.80420000  0.51580000  0.76410000  1
  C  C475  1  0.77110000  0.50550000  0.85400000  1
  C  C476  1  0.59912000  0.47514000  0.13287000  1
  C  C477  1  0.86570000  0.50071000  0.39848000  1
  C  C478  1  0.78330000  0.48750000  0.28433000  1
  C  C479  1  0.63319000  0.47740000  0.17878000  1
  C  C480  1  0.82642000  0.49190000  0.31238000  1
  C  C481  1  0.64530000  0.48460000  0.26960000  1
  C  C482  1  0.61290000  0.48160000  0.22731000  1
  C  C483  1  0.77160000  0.49890000  0.38470000  1
  C  C484  1  0.73460000  0.48940000  0.30310000  1
  C  C485  1  0.81962000  0.49710000  0.36518000  1
  C  C486  1  0.68544000  0.47760000  0.17220000  1
  C  C487  1  0.71490000  0.48070000  0.21490000  1
  C  C488  1  0.69580000  0.48420000  0.26410000  1
  C  C489  1  0.72890000  0.49450000  0.35400000  1
  C  C490  1  0.09912000  0.02486000  0.86713000  1
  C  C491  1  0.36570000  0.99929000  0.60152000  1
  C  C492  1  0.28330000  0.01250000  0.71567000  1
  C  C493  1  0.13319000  0.02260000  0.82122000  1
  C  C494  1  0.32642000  0.00810000  0.68762000  1
  C  C495  1  0.14530000  0.01540000  0.73040000  1
  C  C496  1  0.11290000  0.01840000  0.77269000  1
  C  C497  1  0.27160000  0.00110000  0.61530000  1
  C  C498  1  0.23460000  0.01060000  0.69690000  1
  C  C499  1  0.31962000  0.00290000  0.63482000  1
  C  C500  1  0.18544000  0.02240000  0.82780000  1
  C  C501  1  0.21490000  0.01930000  0.78510000  1
  C  C502  1  0.19580000  0.01580000  0.73590000  1
  C  C503  1  0.22890000  0.00550000  0.64600000  1
  S  S504  1  0.71664000  0.78192000  0.01861000  1
  S  S505  1  0.78336000  0.21808000  0.51861000  1
  S  S506  1  0.21664000  0.71808000  0.98139000  1
  S  S507  1  0.28336000  0.28192000  0.48139000  1
  S  S508  1  0.01861000  0.71664000  0.78192000  1
  S  S509  1  0.48139000  0.28336000  0.28192000  1
  S  S510  1  0.51861000  0.78336000  0.21808000  1
  S  S511  1  0.98139000  0.21664000  0.71808000  1
  S  S512  1  0.78192000  0.01861000  0.71664000  1
  S  S513  1  0.28192000  0.48139000  0.28336000  1
  S  S514  1  0.21808000  0.51861000  0.78336000  1
  S  S515  1  0.71808000  0.98139000  0.21664000  1
  S  S516  1  0.28336000  0.21808000  0.98139000  1
  S  S517  1  0.21664000  0.78192000  0.48139000  1
  S  S518  1  0.78336000  0.28192000  0.01861000  1
  S  S519  1  0.71664000  0.71808000  0.51861000  1
  S  S520  1  0.98139000  0.28336000  0.21808000  1
  S  S521  1  0.51861000  0.71664000  0.71808000  1
  S  S522  1  0.48139000  0.21664000  0.78192000  1
  S  S523  1  0.01861000  0.78336000  0.28192000  1
  S  S524  1  0.21808000  0.98139000  0.28336000  1
  S  S525  1  0.71808000  0.51861000  0.71664000  1
  S  S526  1  0.78192000  0.48139000  0.21664000  1
  S  S527  1  0.28192000  0.01861000  0.78336000  1
  O  O528  1  0.64313000  0.55182000  0.02505000  1
  O  O529  1  0.87698000  0.90877000  0.00807000  1
  O  O530  1  0.58988000  0.62203000  0.02603000  1
  O  O531  1  0.94500000  0.85651000  0.98847000  1
  O  O532  1  0.96668000  0.94214000  0.04451000  1
  O  O533  1  0.69143000  0.80160000  0.97410000  1
  O  O534  1  0.70130000  0.80290000  0.06870000  1
  O  O535  1  0.95412000  0.95412000  0.95412000  1
  O  O536  1  0.85687000  0.44818000  0.52505000  1
  O  O537  1  0.62302000  0.09123000  0.50807000  1
  O  O538  1  0.91012000  0.37797000  0.52603000  1
  O  O539  1  0.55500000  0.14349000  0.48847000  1
  O  O540  1  0.53332000  0.05786000  0.54451000  1
  O  O541  1  0.80857000  0.19840000  0.47410000  1
  O  O542  1  0.79870000  0.19710000  0.56870000  1
  O  O543  1  0.54588000  0.04588000  0.45412000  1
  O  O544  1  0.14313000  0.94818000  0.97495000  1
  O  O545  1  0.37698000  0.59123000  0.99193000  1
  O  O546  1  0.08988000  0.87797000  0.97397000  1
  O  O547  1  0.44500000  0.64349000  0.01153000  1
  O  O548  1  0.46668000  0.55786000  0.95549000  1
  O  O549  1  0.19143000  0.69840000  0.02590000  1
  O  O550  1  0.20130000  0.69710000  0.93130000  1
  O  O551  1  0.45412000  0.54588000  0.04588000  1
  O  O552  1  0.35687000  0.05182000  0.47495000  1
  O  O553  1  0.12302000  0.40877000  0.49193000  1
  O  O554  1  0.41012000  0.12203000  0.47397000  1
  O  O555  1  0.05500000  0.35651000  0.51153000  1
  O  O556  1  0.03332000  0.44214000  0.45549000  1
  O  O557  1  0.30857000  0.30160000  0.52590000  1
  O  O558  1  0.29870000  0.30290000  0.43130000  1
  O  O559  1  0.04588000  0.45412000  0.54588000  1
  O  O560  1  0.02505000  0.64313000  0.55182000  1
  O  O561  1  0.00807000  0.87698000  0.90877000  1
  O  O562  1  0.02603000  0.58988000  0.62203000  1
  O  O563  1  0.98847000  0.94500000  0.85651000  1
  O  O564  1  0.04451000  0.96668000  0.94214000  1
  O  O565  1  0.97410000  0.69143000  0.80160000  1
  O  O566  1  0.06870000  0.70130000  0.80290000  1
  O  O567  1  0.47495000  0.35687000  0.05182000  1
  O  O568  1  0.49193000  0.12302000  0.40877000  1
  O  O569  1  0.47397000  0.41012000  0.12203000  1
  O  O570  1  0.51153000  0.05500000  0.35651000  1
  O  O571  1  0.45549000  0.03332000  0.44214000  1
  O  O572  1  0.52590000  0.30857000  0.30160000  1
  O  O573  1  0.43130000  0.29870000  0.30290000  1
  O  O574  1  0.52505000  0.85687000  0.44818000  1
  O  O575  1  0.50807000  0.62302000  0.09123000  1
  O  O576  1  0.52603000  0.91012000  0.37797000  1
  O  O577  1  0.48847000  0.55500000  0.14349000  1
  O  O578  1  0.54451000  0.53332000  0.05786000  1
  O  O579  1  0.47410000  0.80857000  0.19840000  1
  O  O580  1  0.56870000  0.79870000  0.19710000  1
  O  O581  1  0.97495000  0.14313000  0.94818000  1
  O  O582  1  0.99193000  0.37698000  0.59123000  1
  O  O583  1  0.97397000  0.08988000  0.87797000  1
  O  O584  1  0.01153000  0.44500000  0.64349000  1
  O  O585  1  0.95549000  0.46668000  0.55786000  1
  O  O586  1  0.02590000  0.19143000  0.69840000  1
  O  O587  1  0.93130000  0.20130000  0.69710000  1
  O  O588  1  0.55182000  0.02505000  0.64313000  1
  O  O589  1  0.90877000  0.00807000  0.87698000  1
  O  O590  1  0.62203000  0.02603000  0.58988000  1
  O  O591  1  0.85651000  0.98847000  0.94500000  1
  O  O592  1  0.94214000  0.04451000  0.96668000  1
  O  O593  1  0.80160000  0.97410000  0.69143000  1
  O  O594  1  0.80290000  0.06870000  0.70130000  1
  O  O595  1  0.05182000  0.47495000  0.35687000  1
  O  O596  1  0.40877000  0.49193000  0.12302000  1
  O  O597  1  0.12203000  0.47397000  0.41012000  1
  O  O598  1  0.35651000  0.51153000  0.05500000  1
  O  O599  1  0.44214000  0.45549000  0.03332000  1
  O  O600  1  0.30160000  0.52590000  0.30857000  1
  O  O601  1  0.30290000  0.43130000  0.29870000  1
  O  O602  1  0.44818000  0.52505000  0.85687000  1
  O  O603  1  0.09123000  0.50807000  0.62302000  1
  O  O604  1  0.37797000  0.52603000  0.91012000  1
  O  O605  1  0.14349000  0.48847000  0.55500000  1
  O  O606  1  0.05786000  0.54451000  0.53332000  1
  O  O607  1  0.19840000  0.47410000  0.80857000  1
  O  O608  1  0.19710000  0.56870000  0.79870000  1
  O  O609  1  0.94818000  0.97495000  0.14313000  1
  O  O610  1  0.59123000  0.99193000  0.37698000  1
  O  O611  1  0.87797000  0.97397000  0.08988000  1
  O  O612  1  0.64349000  0.01153000  0.44500000  1
  O  O613  1  0.55786000  0.95549000  0.46668000  1
  O  O614  1  0.69840000  0.02590000  0.19143000  1
  O  O615  1  0.69710000  0.93130000  0.20130000  1
  O  O616  1  0.35687000  0.44818000  0.97495000  1
  O  O617  1  0.12302000  0.09123000  0.99193000  1
  O  O618  1  0.41012000  0.37797000  0.97397000  1
  O  O619  1  0.05500000  0.14349000  0.01153000  1
  O  O620  1  0.03332000  0.05786000  0.95549000  1
  O  O621  1  0.30857000  0.19840000  0.02590000  1
  O  O622  1  0.29870000  0.19710000  0.93130000  1
  O  O623  1  0.04588000  0.04588000  0.04588000  1
  O  O624  1  0.14313000  0.55182000  0.47495000  1
  O  O625  1  0.37698000  0.90877000  0.49193000  1
  O  O626  1  0.08988000  0.62203000  0.47397000  1
  O  O627  1  0.44500000  0.85651000  0.51153000  1
  O  O628  1  0.46668000  0.94214000  0.45549000  1
  O  O629  1  0.19143000  0.80160000  0.52590000  1
  O  O630  1  0.20130000  0.80290000  0.43130000  1
  O  O631  1  0.45412000  0.95412000  0.54588000  1
  O  O632  1  0.85687000  0.05182000  0.02505000  1
  O  O633  1  0.62302000  0.40877000  0.00807000  1
  O  O634  1  0.91012000  0.12203000  0.02603000  1
  O  O635  1  0.55500000  0.35651000  0.98847000  1
  O  O636  1  0.53332000  0.44214000  0.04451000  1
  O  O637  1  0.80857000  0.30160000  0.97410000  1
  O  O638  1  0.79870000  0.30290000  0.06870000  1
  O  O639  1  0.54588000  0.45412000  0.95412000  1
  O  O640  1  0.64313000  0.94818000  0.52505000  1
  O  O641  1  0.87698000  0.59123000  0.50807000  1
  O  O642  1  0.58988000  0.87797000  0.52603000  1
  O  O643  1  0.94500000  0.64349000  0.48847000  1
  O  O644  1  0.96668000  0.55786000  0.54451000  1
  O  O645  1  0.69143000  0.69840000  0.47410000  1
  O  O646  1  0.70130000  0.69710000  0.56870000  1
  O  O647  1  0.95412000  0.54588000  0.45412000  1
  O  O648  1  0.97495000  0.35687000  0.44818000  1
  O  O649  1  0.99193000  0.12302000  0.09123000  1
  O  O650  1  0.97397000  0.41012000  0.37797000  1
  O  O651  1  0.01153000  0.05500000  0.14349000  1
  O  O652  1  0.95549000  0.03332000  0.05786000  1
  O  O653  1  0.02590000  0.30857000  0.19840000  1
  O  O654  1  0.93130000  0.29870000  0.19710000  1
  O  O655  1  0.52505000  0.64313000  0.94818000  1
  O  O656  1  0.50807000  0.87698000  0.59123000  1
  O  O657  1  0.52603000  0.58988000  0.87797000  1
  O  O658  1  0.48847000  0.94500000  0.64349000  1
  O  O659  1  0.54451000  0.96668000  0.55786000  1
  O  O660  1  0.47410000  0.69143000  0.69840000  1
  O  O661  1  0.56870000  0.70130000  0.69710000  1
  O  O662  1  0.47495000  0.14313000  0.55182000  1
  O  O663  1  0.49193000  0.37698000  0.90877000  1
  O  O664  1  0.47397000  0.08988000  0.62203000  1
  O  O665  1  0.51153000  0.44500000  0.85651000  1
  O  O666  1  0.45549000  0.46668000  0.94214000  1
  O  O667  1  0.52590000  0.19143000  0.80160000  1
  O  O668  1  0.43130000  0.20130000  0.80290000  1
  O  O669  1  0.02505000  0.85687000  0.05182000  1
  O  O670  1  0.00807000  0.62302000  0.40877000  1
  O  O671  1  0.02603000  0.91012000  0.12203000  1
  O  O672  1  0.98847000  0.55500000  0.35651000  1
  O  O673  1  0.04451000  0.53332000  0.44214000  1
  O  O674  1  0.97410000  0.80857000  0.30160000  1
  O  O675  1  0.06870000  0.79870000  0.30290000  1
  O  O676  1  0.44818000  0.97495000  0.35687000  1
  O  O677  1  0.09123000  0.99193000  0.12302000  1
  O  O678  1  0.37797000  0.97397000  0.41012000  1
  O  O679  1  0.14349000  0.01153000  0.05500000  1
  O  O680  1  0.05786000  0.95549000  0.03332000  1
  O  O681  1  0.19840000  0.02590000  0.30857000  1
  O  O682  1  0.19710000  0.93130000  0.29870000  1
  O  O683  1  0.94818000  0.52505000  0.64313000  1
  O  O684  1  0.59123000  0.50807000  0.87698000  1
  O  O685  1  0.87797000  0.52603000  0.58988000  1
  O  O686  1  0.64349000  0.48847000  0.94500000  1
  O  O687  1  0.55786000  0.54451000  0.96668000  1
  O  O688  1  0.69840000  0.47410000  0.69143000  1
  O  O689  1  0.69710000  0.56870000  0.70130000  1
  O  O690  1  0.55182000  0.47495000  0.14313000  1
  O  O691  1  0.90877000  0.49193000  0.37698000  1
  O  O692  1  0.62203000  0.47397000  0.08988000  1
  O  O693  1  0.85651000  0.51153000  0.44500000  1
  O  O694  1  0.94214000  0.45549000  0.46668000  1
  O  O695  1  0.80160000  0.52590000  0.19143000  1
  O  O696  1  0.80290000  0.43130000  0.20130000  1
  O  O697  1  0.05182000  0.02505000  0.85687000  1
  O  O698  1  0.40877000  0.00807000  0.62302000  1
  O  O699  1  0.12203000  0.02603000  0.91012000  1
  O  O700  1  0.35651000  0.98847000  0.55500000  1
  O  O701  1  0.44214000  0.04451000  0.53332000  1
  O  O702  1  0.30160000  0.97410000  0.80857000  1
  O  O703  1  0.30290000  0.06870000  0.79870000  1
