# generated using pymatgen
data_Zr3H18C45O19
_symmetry_space_group_name_H-M   'P 1'
_cell_length_a   26.07000000
_cell_length_b   26.07000000
_cell_length_c   26.07000000
_cell_angle_alpha   90.00000000
_cell_angle_beta   90.00000000
_cell_angle_gamma   90.00000000
_symmetry_Int_Tables_number   1
_chemical_formula_structural   Zr3H18C45O19
_chemical_formula_sum   'Zr24 H144 C360 O152'
_cell_volume   17718.34254300
_cell_formula_units_Z   8
loop_
 _symmetry_equiv_pos_site_id
 _symmetry_equiv_pos_as_xyz
  1  'x, y, z'
loop_
 _atom_site_type_symbol
 _atom_site_label
 _atom_site_symmetry_multiplicity
 _atom_site_fract_x
 _atom_site_fract_y
 _atom_site_fract_z
 _atom_site_occupancy
  Zr  Zr0  1  0.40791000  0.01568000  0.51868000  1
  Zr  Zr1  1  0.09209000  0.98432000  0.01868000  1
  Zr  Zr2  1  0.90791000  0.48432000  0.48132000  1
  Zr  Zr3  1  0.59209000  0.51568000  0.98132000  1
  Zr  Zr4  1  0.51868000  0.40791000  0.01568000  1
  Zr  Zr5  1  0.98132000  0.59209000  0.51568000  1
  Zr  Zr6  1  0.01868000  0.09209000  0.98432000  1
  Zr  Zr7  1  0.48132000  0.90791000  0.48432000  1
  Zr  Zr8  1  0.01568000  0.51868000  0.40791000  1
  Zr  Zr9  1  0.51568000  0.98132000  0.59209000  1
  Zr  Zr10  1  0.98432000  0.01868000  0.09209000  1
  Zr  Zr11  1  0.48432000  0.48132000  0.90791000  1
  Zr  Zr12  1  0.59209000  0.98432000  0.48132000  1
  Zr  Zr13  1  0.90791000  0.01568000  0.98132000  1
  Zr  Zr14  1  0.09209000  0.51568000  0.51868000  1
  Zr  Zr15  1  0.40791000  0.48432000  0.01868000  1
  Zr  Zr16  1  0.48132000  0.59209000  0.98432000  1
  Zr  Zr17  1  0.01868000  0.40791000  0.48432000  1
  Zr  Zr18  1  0.98132000  0.90791000  0.01568000  1
  Zr  Zr19  1  0.51868000  0.09209000  0.51568000  1
  Zr  Zr20  1  0.98432000  0.48132000  0.59209000  1
  Zr  Zr21  1  0.48432000  0.01868000  0.40791000  1
  Zr  Zr22  1  0.01568000  0.98132000  0.90791000  1
  Zr  Zr23  1  0.51568000  0.51868000  0.09209000  1
  H  H24  1  0.26590000  0.05200000  0.43140000  1
  H  H25  1  0.19210000  0.05710000  0.38110000  1
  H  H26  1  0.35070000  0.02410000  0.30560000  1
  H  H27  1  0.11900000  0.04960000  0.30780000  1
  H  H28  1  0.06940000  0.02600000  0.23610000  1
  H  H29  1  0.19810000  0.00360000  0.15340000  1
  H  H30  1  0.23410000  0.94800000  0.93140000  1
  H  H31  1  0.30790000  0.94290000  0.88110000  1
  H  H32  1  0.14930000  0.97590000  0.80560000  1
  H  H33  1  0.38100000  0.95040000  0.80780000  1
  H  H34  1  0.43060000  0.97400000  0.73610000  1
  H  H35  1  0.30190000  0.99640000  0.65340000  1
  H  H36  1  0.76590000  0.44800000  0.56860000  1
  H  H37  1  0.69210000  0.44290000  0.61890000  1
  H  H38  1  0.85070000  0.47590000  0.69440000  1
  H  H39  1  0.61900000  0.45040000  0.69220000  1
  H  H40  1  0.56940000  0.47400000  0.76390000  1
  H  H41  1  0.69810000  0.49640000  0.84660000  1
  H  H42  1  0.73410000  0.55200000  0.06860000  1
  H  H43  1  0.80790000  0.55710000  0.11890000  1
  H  H44  1  0.64930000  0.52410000  0.19440000  1
  H  H45  1  0.88100000  0.54960000  0.19220000  1
  H  H46  1  0.93060000  0.52600000  0.26390000  1
  H  H47  1  0.80190000  0.50360000  0.34660000  1
  H  H48  1  0.43140000  0.26590000  0.05200000  1
  H  H49  1  0.38110000  0.19210000  0.05710000  1
  H  H50  1  0.30560000  0.35070000  0.02410000  1
  H  H51  1  0.30780000  0.11900000  0.04960000  1
  H  H52  1  0.23610000  0.06940000  0.02600000  1
  H  H53  1  0.15340000  0.19810000  0.00360000  1
  H  H54  1  0.06860000  0.73410000  0.55200000  1
  H  H55  1  0.11890000  0.80790000  0.55710000  1
  H  H56  1  0.19440000  0.64930000  0.52410000  1
  H  H57  1  0.19220000  0.88100000  0.54960000  1
  H  H58  1  0.26390000  0.93060000  0.52600000  1
  H  H59  1  0.34660000  0.80190000  0.50360000  1
  H  H60  1  0.93140000  0.23410000  0.94800000  1
  H  H61  1  0.88110000  0.30790000  0.94290000  1
  H  H62  1  0.80560000  0.14930000  0.97590000  1
  H  H63  1  0.80780000  0.38100000  0.95040000  1
  H  H64  1  0.73610000  0.43060000  0.97400000  1
  H  H65  1  0.65340000  0.30190000  0.99640000  1
  H  H66  1  0.56860000  0.76590000  0.44800000  1
  H  H67  1  0.61890000  0.69210000  0.44290000  1
  H  H68  1  0.69440000  0.85070000  0.47590000  1
  H  H69  1  0.69220000  0.61900000  0.45040000  1
  H  H70  1  0.76390000  0.56940000  0.47400000  1
  H  H71  1  0.84660000  0.69810000  0.49640000  1
  H  H72  1  0.05200000  0.43140000  0.26590000  1
  H  H73  1  0.05710000  0.38110000  0.19210000  1
  H  H74  1  0.02410000  0.30560000  0.35070000  1
  H  H75  1  0.04960000  0.30780000  0.11900000  1
  H  H76  1  0.02600000  0.23610000  0.06940000  1
  H  H77  1  0.00360000  0.15340000  0.19810000  1
  H  H78  1  0.55200000  0.06860000  0.73410000  1
  H  H79  1  0.55710000  0.11890000  0.80790000  1
  H  H80  1  0.52410000  0.19440000  0.64930000  1
  H  H81  1  0.54960000  0.19220000  0.88100000  1
  H  H82  1  0.52600000  0.26390000  0.93060000  1
  H  H83  1  0.50360000  0.34660000  0.80190000  1
  H  H84  1  0.94800000  0.93140000  0.23410000  1
  H  H85  1  0.94290000  0.88110000  0.30790000  1
  H  H86  1  0.97590000  0.80560000  0.14930000  1
  H  H87  1  0.95040000  0.80780000  0.38100000  1
  H  H88  1  0.97400000  0.73610000  0.43060000  1
  H  H89  1  0.99640000  0.65340000  0.30190000  1
  H  H90  1  0.44800000  0.56860000  0.76590000  1
  H  H91  1  0.44290000  0.61890000  0.69210000  1
  H  H92  1  0.47590000  0.69440000  0.85070000  1
  H  H93  1  0.45040000  0.69220000  0.61900000  1
  H  H94  1  0.47400000  0.76390000  0.56940000  1
  H  H95  1  0.49640000  0.84660000  0.69810000  1
  H  H96  1  0.73410000  0.94800000  0.56860000  1
  H  H97  1  0.80790000  0.94290000  0.61890000  1
  H  H98  1  0.64930000  0.97590000  0.69440000  1
  H  H99  1  0.88100000  0.95040000  0.69220000  1
  H  H100  1  0.93060000  0.97400000  0.76390000  1
  H  H101  1  0.80190000  0.99640000  0.84660000  1
  H  H102  1  0.76590000  0.05200000  0.06860000  1
  H  H103  1  0.69210000  0.05710000  0.11890000  1
  H  H104  1  0.85070000  0.02410000  0.19440000  1
  H  H105  1  0.61900000  0.04960000  0.19220000  1
  H  H106  1  0.56940000  0.02600000  0.26390000  1
  H  H107  1  0.69810000  0.00360000  0.34660000  1
  H  H108  1  0.23410000  0.55200000  0.43140000  1
  H  H109  1  0.30790000  0.55710000  0.38110000  1
  H  H110  1  0.14930000  0.52410000  0.30560000  1
  H  H111  1  0.38100000  0.54960000  0.30780000  1
  H  H112  1  0.43060000  0.52600000  0.23610000  1
  H  H113  1  0.30190000  0.50360000  0.15340000  1
  H  H114  1  0.26590000  0.44800000  0.93140000  1
  H  H115  1  0.19210000  0.44290000  0.88110000  1
  H  H116  1  0.35070000  0.47590000  0.80560000  1
  H  H117  1  0.11900000  0.45040000  0.80780000  1
  H  H118  1  0.06940000  0.47400000  0.73610000  1
  H  H119  1  0.19810000  0.49640000  0.65340000  1
  H  H120  1  0.56860000  0.73410000  0.94800000  1
  H  H121  1  0.61890000  0.80790000  0.94290000  1
  H  H122  1  0.69440000  0.64930000  0.97590000  1
  H  H123  1  0.69220000  0.88100000  0.95040000  1
  H  H124  1  0.76390000  0.93060000  0.97400000  1
  H  H125  1  0.84660000  0.80190000  0.99640000  1
  H  H126  1  0.93140000  0.26590000  0.44800000  1
  H  H127  1  0.88110000  0.19210000  0.44290000  1
  H  H128  1  0.80560000  0.35070000  0.47590000  1
  H  H129  1  0.80780000  0.11900000  0.45040000  1
  H  H130  1  0.73610000  0.06940000  0.47400000  1
  H  H131  1  0.65340000  0.19810000  0.49640000  1
  H  H132  1  0.06860000  0.76590000  0.05200000  1
  H  H133  1  0.11890000  0.69210000  0.05710000  1
  H  H134  1  0.19440000  0.85070000  0.02410000  1
  H  H135  1  0.19220000  0.61900000  0.04960000  1
  H  H136  1  0.26390000  0.56940000  0.02600000  1
  H  H137  1  0.34660000  0.69810000  0.00360000  1
  H  H138  1  0.43140000  0.23410000  0.55200000  1
  H  H139  1  0.38110000  0.30790000  0.55710000  1
  H  H140  1  0.30560000  0.14930000  0.52410000  1
  H  H141  1  0.30780000  0.38100000  0.54960000  1
  H  H142  1  0.23610000  0.43060000  0.52600000  1
  H  H143  1  0.15340000  0.30190000  0.50360000  1
  H  H144  1  0.94800000  0.56860000  0.73410000  1
  H  H145  1  0.94290000  0.61890000  0.80790000  1
  H  H146  1  0.97590000  0.69440000  0.64930000  1
  H  H147  1  0.95040000  0.69220000  0.88100000  1
  H  H148  1  0.97400000  0.76390000  0.93060000  1
  H  H149  1  0.99640000  0.84660000  0.80190000  1
  H  H150  1  0.44800000  0.93140000  0.26590000  1
  H  H151  1  0.44290000  0.88110000  0.19210000  1
  H  H152  1  0.47590000  0.80560000  0.35070000  1
  H  H153  1  0.45040000  0.80780000  0.11900000  1
  H  H154  1  0.47400000  0.73610000  0.06940000  1
  H  H155  1  0.49640000  0.65340000  0.19810000  1
  H  H156  1  0.05200000  0.06860000  0.76590000  1
  H  H157  1  0.05710000  0.11890000  0.69210000  1
  H  H158  1  0.02410000  0.19440000  0.85070000  1
  H  H159  1  0.04960000  0.19220000  0.61900000  1
  H  H160  1  0.02600000  0.26390000  0.56940000  1
  H  H161  1  0.00360000  0.34660000  0.69810000  1
  H  H162  1  0.55200000  0.43140000  0.23410000  1
  H  H163  1  0.55710000  0.38110000  0.30790000  1
  H  H164  1  0.52410000  0.30560000  0.14930000  1
  H  H165  1  0.54960000  0.30780000  0.38100000  1
  H  H166  1  0.52600000  0.23610000  0.43060000  1
  H  H167  1  0.50360000  0.15340000  0.30190000  1
  C  C168  1  0.36273000  0.03699000  0.40587000  1
  C  C169  1  0.31512000  0.03907000  0.37339000  1
  C  C170  1  0.26798000  0.04730000  0.39612000  1
  C  C171  1  0.22344000  0.04860000  0.36632000  1
  C  C172  1  0.22659000  0.03740000  0.31509000  1
  C  C173  1  0.27421000  0.02880000  0.29249000  1
  C  C174  1  0.31899000  0.02970000  0.32100000  1
  C  C175  1  0.26683000  0.01780000  0.23655000  1
  C  C176  1  0.09655000  0.00749000  0.14038000  1
  C  C177  1  0.21013000  0.01970000  0.22858000  1
  C  C178  1  0.18662000  0.03200000  0.27485000  1
  C  C179  1  0.13451000  0.03810000  0.27780000  1
  C  C180  1  0.12892000  0.01545000  0.18729000  1
  C  C181  1  0.10499000  0.02640000  0.23394000  1
  C  C182  1  0.18200000  0.01150000  0.18427000  1
  C  C183  1  0.13727000  0.96301000  0.90587000  1
  C  C184  1  0.18488000  0.96093000  0.87339000  1
  C  C185  1  0.23202000  0.95270000  0.89612000  1
  C  C186  1  0.27656000  0.95140000  0.86632000  1
  C  C187  1  0.27341000  0.96260000  0.81509000  1
  C  C188  1  0.22579000  0.97120000  0.79249000  1
  C  C189  1  0.18101000  0.97030000  0.82100000  1
  C  C190  1  0.23317000  0.98220000  0.73655000  1
  C  C191  1  0.40345000  0.99251000  0.64038000  1
  C  C192  1  0.28987000  0.98030000  0.72858000  1
  C  C193  1  0.31338000  0.96800000  0.77485000  1
  C  C194  1  0.36549000  0.96190000  0.77780000  1
  C  C195  1  0.37108000  0.98455000  0.68729000  1
  C  C196  1  0.39501000  0.97360000  0.73394000  1
  C  C197  1  0.31800000  0.98850000  0.68427000  1
  C  C198  1  0.86273000  0.46301000  0.59413000  1
  C  C199  1  0.81512000  0.46093000  0.62661000  1
  C  C200  1  0.76798000  0.45270000  0.60388000  1
  C  C201  1  0.72344000  0.45140000  0.63368000  1
  C  C202  1  0.72659000  0.46260000  0.68491000  1
  C  C203  1  0.77421000  0.47120000  0.70751000  1
  C  C204  1  0.81899000  0.47030000  0.67900000  1
  C  C205  1  0.76683000  0.48220000  0.76345000  1
  C  C206  1  0.59655000  0.49251000  0.85962000  1
  C  C207  1  0.71013000  0.48030000  0.77142000  1
  C  C208  1  0.68662000  0.46800000  0.72515000  1
  C  C209  1  0.63451000  0.46190000  0.72220000  1
  C  C210  1  0.62892000  0.48455000  0.81271000  1
  C  C211  1  0.60499000  0.47360000  0.76606000  1
  C  C212  1  0.68200000  0.48850000  0.81573000  1
  C  C213  1  0.63727000  0.53699000  0.09413000  1
  C  C214  1  0.68488000  0.53907000  0.12661000  1
  C  C215  1  0.73202000  0.54730000  0.10388000  1
  C  C216  1  0.77656000  0.54860000  0.13368000  1
  C  C217  1  0.77341000  0.53740000  0.18491000  1
  C  C218  1  0.72579000  0.52880000  0.20751000  1
  C  C219  1  0.68101000  0.52970000  0.17900000  1
  C  C220  1  0.73317000  0.51780000  0.26345000  1
  C  C221  1  0.90345000  0.50749000  0.35962000  1
  C  C222  1  0.78987000  0.51970000  0.27142000  1
  C  C223  1  0.81338000  0.53200000  0.22515000  1
  C  C224  1  0.86549000  0.53810000  0.22220000  1
  C  C225  1  0.87108000  0.51545000  0.31271000  1
  C  C226  1  0.89501000  0.52640000  0.26606000  1
  C  C227  1  0.81800000  0.51150000  0.31573000  1
  C  C228  1  0.40587000  0.36273000  0.03699000  1
  C  C229  1  0.37339000  0.31512000  0.03907000  1
  C  C230  1  0.39612000  0.26798000  0.04730000  1
  C  C231  1  0.36632000  0.22344000  0.04860000  1
  C  C232  1  0.31509000  0.22659000  0.03740000  1
  C  C233  1  0.29249000  0.27421000  0.02880000  1
  C  C234  1  0.32100000  0.31899000  0.02970000  1
  C  C235  1  0.23655000  0.26683000  0.01780000  1
  C  C236  1  0.14038000  0.09655000  0.00749000  1
  C  C237  1  0.22858000  0.21013000  0.01970000  1
  C  C238  1  0.27485000  0.18662000  0.03200000  1
  C  C239  1  0.27780000  0.13451000  0.03810000  1
  C  C240  1  0.18729000  0.12892000  0.01545000  1
  C  C241  1  0.23394000  0.10499000  0.02640000  1
  C  C242  1  0.18427000  0.18200000  0.01150000  1
  C  C243  1  0.09413000  0.63727000  0.53699000  1
  C  C244  1  0.12661000  0.68488000  0.53907000  1
  C  C245  1  0.10388000  0.73202000  0.54730000  1
  C  C246  1  0.13368000  0.77656000  0.54860000  1
  C  C247  1  0.18491000  0.77341000  0.53740000  1
  C  C248  1  0.20751000  0.72579000  0.52880000  1
  C  C249  1  0.17900000  0.68101000  0.52970000  1
  C  C250  1  0.26345000  0.73317000  0.51780000  1
  C  C251  1  0.35962000  0.90345000  0.50749000  1
  C  C252  1  0.27142000  0.78987000  0.51970000  1
  C  C253  1  0.22515000  0.81338000  0.53200000  1
  C  C254  1  0.22220000  0.86549000  0.53810000  1
  C  C255  1  0.31271000  0.87108000  0.51545000  1
  C  C256  1  0.26606000  0.89501000  0.52640000  1
  C  C257  1  0.31573000  0.81800000  0.51150000  1
  C  C258  1  0.90587000  0.13727000  0.96301000  1
  C  C259  1  0.87339000  0.18488000  0.96093000  1
  C  C260  1  0.89612000  0.23202000  0.95270000  1
  C  C261  1  0.86632000  0.27656000  0.95140000  1
  C  C262  1  0.81509000  0.27341000  0.96260000  1
  C  C263  1  0.79249000  0.22579000  0.97120000  1
  C  C264  1  0.82100000  0.18101000  0.97030000  1
  C  C265  1  0.73655000  0.23317000  0.98220000  1
  C  C266  1  0.64038000  0.40345000  0.99251000  1
  C  C267  1  0.72858000  0.28987000  0.98030000  1
  C  C268  1  0.77485000  0.31338000  0.96800000  1
  C  C269  1  0.77780000  0.36549000  0.96190000  1
  C  C270  1  0.68729000  0.37108000  0.98455000  1
  C  C271  1  0.73394000  0.39501000  0.97360000  1
  C  C272  1  0.68427000  0.31800000  0.98850000  1
  C  C273  1  0.59413000  0.86273000  0.46301000  1
  C  C274  1  0.62661000  0.81512000  0.46093000  1
  C  C275  1  0.60388000  0.76798000  0.45270000  1
  C  C276  1  0.63368000  0.72344000  0.45140000  1
  C  C277  1  0.68491000  0.72659000  0.46260000  1
  C  C278  1  0.70751000  0.77421000  0.47120000  1
  C  C279  1  0.67900000  0.81899000  0.47030000  1
  C  C280  1  0.76345000  0.76683000  0.48220000  1
  C  C281  1  0.85962000  0.59655000  0.49251000  1
  C  C282  1  0.77142000  0.71013000  0.48030000  1
  C  C283  1  0.72515000  0.68662000  0.46800000  1
  C  C284  1  0.72220000  0.63451000  0.46190000  1
  C  C285  1  0.81271000  0.62892000  0.48455000  1
  C  C286  1  0.76606000  0.60499000  0.47360000  1
  C  C287  1  0.81573000  0.68200000  0.48850000  1
  C  C288  1  0.03699000  0.40587000  0.36273000  1
  C  C289  1  0.03907000  0.37339000  0.31512000  1
  C  C290  1  0.04730000  0.39612000  0.26798000  1
  C  C291  1  0.04860000  0.36632000  0.22344000  1
  C  C292  1  0.03740000  0.31509000  0.22659000  1
  C  C293  1  0.02880000  0.29249000  0.27421000  1
  C  C294  1  0.02970000  0.32100000  0.31899000  1
  C  C295  1  0.01780000  0.23655000  0.26683000  1
  C  C296  1  0.00749000  0.14038000  0.09655000  1
  C  C297  1  0.01970000  0.22858000  0.21013000  1
  C  C298  1  0.03200000  0.27485000  0.18662000  1
  C  C299  1  0.03810000  0.27780000  0.13451000  1
  C  C300  1  0.01545000  0.18729000  0.12892000  1
  C  C301  1  0.02640000  0.23394000  0.10499000  1
  C  C302  1  0.01150000  0.18427000  0.18200000  1
  C  C303  1  0.53699000  0.09413000  0.63727000  1
  C  C304  1  0.53907000  0.12661000  0.68488000  1
  C  C305  1  0.54730000  0.10388000  0.73202000  1
  C  C306  1  0.54860000  0.13368000  0.77656000  1
  C  C307  1  0.53740000  0.18491000  0.77341000  1
  C  C308  1  0.52880000  0.20751000  0.72579000  1
  C  C309  1  0.52970000  0.17900000  0.68101000  1
  C  C310  1  0.51780000  0.26345000  0.73317000  1
  C  C311  1  0.50749000  0.35962000  0.90345000  1
  C  C312  1  0.51970000  0.27142000  0.78987000  1
  C  C313  1  0.53200000  0.22515000  0.81338000  1
  C  C314  1  0.53810000  0.22220000  0.86549000  1
  C  C315  1  0.51545000  0.31271000  0.87108000  1
  C  C316  1  0.52640000  0.26606000  0.89501000  1
  C  C317  1  0.51150000  0.31573000  0.81800000  1
  C  C318  1  0.96301000  0.90587000  0.13727000  1
  C  C319  1  0.96093000  0.87339000  0.18488000  1
  C  C320  1  0.95270000  0.89612000  0.23202000  1
  C  C321  1  0.95140000  0.86632000  0.27656000  1
  C  C322  1  0.96260000  0.81509000  0.27341000  1
  C  C323  1  0.97120000  0.79249000  0.22579000  1
  C  C324  1  0.97030000  0.82100000  0.18101000  1
  C  C325  1  0.98220000  0.73655000  0.23317000  1
  C  C326  1  0.99251000  0.64038000  0.40345000  1
  C  C327  1  0.98030000  0.72858000  0.28987000  1
  C  C328  1  0.96800000  0.77485000  0.31338000  1
  C  C329  1  0.96190000  0.77780000  0.36549000  1
  C  C330  1  0.98455000  0.68729000  0.37108000  1
  C  C331  1  0.97360000  0.73394000  0.39501000  1
  C  C332  1  0.98850000  0.68427000  0.31800000  1
  C  C333  1  0.46301000  0.59413000  0.86273000  1
  C  C334  1  0.46093000  0.62661000  0.81512000  1
  C  C335  1  0.45270000  0.60388000  0.76798000  1
  C  C336  1  0.45140000  0.63368000  0.72344000  1
  C  C337  1  0.46260000  0.68491000  0.72659000  1
  C  C338  1  0.47120000  0.70751000  0.77421000  1
  C  C339  1  0.47030000  0.67900000  0.81899000  1
  C  C340  1  0.48220000  0.76345000  0.76683000  1
  C  C341  1  0.49251000  0.85962000  0.59655000  1
  C  C342  1  0.48030000  0.77142000  0.71013000  1
  C  C343  1  0.46800000  0.72515000  0.68662000  1
  C  C344  1  0.46190000  0.72220000  0.63451000  1
  C  C345  1  0.48455000  0.81271000  0.62892000  1
  C  C346  1  0.47360000  0.76606000  0.60499000  1
  C  C347  1  0.48850000  0.81573000  0.68200000  1
  C  C348  1  0.63727000  0.96301000  0.59413000  1
  C  C349  1  0.68488000  0.96093000  0.62661000  1
  C  C350  1  0.73202000  0.95270000  0.60388000  1
  C  C351  1  0.77656000  0.95140000  0.63368000  1
  C  C352  1  0.77341000  0.96260000  0.68491000  1
  C  C353  1  0.72579000  0.97120000  0.70751000  1
  C  C354  1  0.68101000  0.97030000  0.67900000  1
  C  C355  1  0.73317000  0.98220000  0.76345000  1
  C  C356  1  0.90345000  0.99251000  0.85962000  1
  C  C357  1  0.78987000  0.98030000  0.77142000  1
  C  C358  1  0.81338000  0.96800000  0.72515000  1
  C  C359  1  0.86549000  0.96190000  0.72220000  1
  C  C360  1  0.87108000  0.98455000  0.81271000  1
  C  C361  1  0.89501000  0.97360000  0.76606000  1
  C  C362  1  0.81800000  0.98850000  0.81573000  1
  C  C363  1  0.86273000  0.03699000  0.09413000  1
  C  C364  1  0.81512000  0.03907000  0.12661000  1
  C  C365  1  0.76798000  0.04730000  0.10388000  1
  C  C366  1  0.72344000  0.04860000  0.13368000  1
  C  C367  1  0.72659000  0.03740000  0.18491000  1
  C  C368  1  0.77421000  0.02880000  0.20751000  1
  C  C369  1  0.81899000  0.02970000  0.17900000  1
  C  C370  1  0.76683000  0.01780000  0.26345000  1
  C  C371  1  0.59655000  0.00749000  0.35962000  1
  C  C372  1  0.71013000  0.01970000  0.27142000  1
  C  C373  1  0.68662000  0.03200000  0.22515000  1
  C  C374  1  0.63451000  0.03810000  0.22220000  1
  C  C375  1  0.62892000  0.01545000  0.31271000  1
  C  C376  1  0.60499000  0.02640000  0.26606000  1
  C  C377  1  0.68200000  0.01150000  0.31573000  1
  C  C378  1  0.13727000  0.53699000  0.40587000  1
  C  C379  1  0.18488000  0.53907000  0.37339000  1
  C  C380  1  0.23202000  0.54730000  0.39612000  1
  C  C381  1  0.27656000  0.54860000  0.36632000  1
  C  C382  1  0.27341000  0.53740000  0.31509000  1
  C  C383  1  0.22579000  0.52880000  0.29249000  1
  C  C384  1  0.18101000  0.52970000  0.32100000  1
  C  C385  1  0.23317000  0.51780000  0.23655000  1
  C  C386  1  0.40345000  0.50749000  0.14038000  1
  C  C387  1  0.28987000  0.51970000  0.22858000  1
  C  C388  1  0.31338000  0.53200000  0.27485000  1
  C  C389  1  0.36549000  0.53810000  0.27780000  1
  C  C390  1  0.37108000  0.51545000  0.18729000  1
  C  C391  1  0.39501000  0.52640000  0.23394000  1
  C  C392  1  0.31800000  0.51150000  0.18427000  1
  C  C393  1  0.36273000  0.46301000  0.90587000  1
  C  C394  1  0.31512000  0.46093000  0.87339000  1
  C  C395  1  0.26798000  0.45270000  0.89612000  1
  C  C396  1  0.22344000  0.45140000  0.86632000  1
  C  C397  1  0.22659000  0.46260000  0.81509000  1
  C  C398  1  0.27421000  0.47120000  0.79249000  1
  C  C399  1  0.31899000  0.47030000  0.82100000  1
  C  C400  1  0.26683000  0.48220000  0.73655000  1
  C  C401  1  0.09655000  0.49251000  0.64038000  1
  C  C402  1  0.21013000  0.48030000  0.72858000  1
  C  C403  1  0.18662000  0.46800000  0.77485000  1
  C  C404  1  0.13451000  0.46190000  0.77780000  1
  C  C405  1  0.12892000  0.48455000  0.68729000  1
  C  C406  1  0.10499000  0.47360000  0.73394000  1
  C  C407  1  0.18200000  0.48850000  0.68427000  1
  C  C408  1  0.59413000  0.63727000  0.96301000  1
  C  C409  1  0.62661000  0.68488000  0.96093000  1
  C  C410  1  0.60388000  0.73202000  0.95270000  1
  C  C411  1  0.63368000  0.77656000  0.95140000  1
  C  C412  1  0.68491000  0.77341000  0.96260000  1
  C  C413  1  0.70751000  0.72579000  0.97120000  1
  C  C414  1  0.67900000  0.68101000  0.97030000  1
  C  C415  1  0.76345000  0.73317000  0.98220000  1
  C  C416  1  0.85962000  0.90345000  0.99251000  1
  C  C417  1  0.77142000  0.78987000  0.98030000  1
  C  C418  1  0.72515000  0.81338000  0.96800000  1
  C  C419  1  0.72220000  0.86549000  0.96190000  1
  C  C420  1  0.81271000  0.87108000  0.98455000  1
  C  C421  1  0.76606000  0.89501000  0.97360000  1
  C  C422  1  0.81573000  0.81800000  0.98850000  1
  C  C423  1  0.90587000  0.36273000  0.46301000  1
  C  C424  1  0.87339000  0.31512000  0.46093000  1
  C  C425  1  0.89612000  0.26798000  0.45270000  1
  C  C426  1  0.86632000  0.22344000  0.45140000  1
  C  C427  1  0.81509000  0.22659000  0.46260000  1
  C  C428  1  0.79249000  0.27421000  0.47120000  1
  C  C429  1  0.82100000  0.31899000  0.47030000  1
  C  C430  1  0.73655000  0.26683000  0.48220000  1
  C  C431  1  0.64038000  0.09655000  0.49251000  1
  C  C432  1  0.72858000  0.21013000  0.48030000  1
  C  C433  1  0.77485000  0.18662000  0.46800000  1
  C  C434  1  0.77780000  0.13451000  0.46190000  1
  C  C435  1  0.68729000  0.12892000  0.48455000  1
  C  C436  1  0.73394000  0.10499000  0.47360000  1
  C  C437  1  0.68427000  0.18200000  0.48850000  1
  C  C438  1  0.09413000  0.86273000  0.03699000  1
  C  C439  1  0.12661000  0.81512000  0.03907000  1
  C  C440  1  0.10388000  0.76798000  0.04730000  1
  C  C441  1  0.13368000  0.72344000  0.04860000  1
  C  C442  1  0.18491000  0.72659000  0.03740000  1
  C  C443  1  0.20751000  0.77421000  0.02880000  1
  C  C444  1  0.17900000  0.81899000  0.02970000  1
  C  C445  1  0.26345000  0.76683000  0.01780000  1
  C  C446  1  0.35962000  0.59655000  0.00749000  1
  C  C447  1  0.27142000  0.71013000  0.01970000  1
  C  C448  1  0.22515000  0.68662000  0.03200000  1
  C  C449  1  0.22220000  0.63451000  0.03810000  1
  C  C450  1  0.31271000  0.62892000  0.01545000  1
  C  C451  1  0.26606000  0.60499000  0.02640000  1
  C  C452  1  0.31573000  0.68200000  0.01150000  1
  C  C453  1  0.40587000  0.13727000  0.53699000  1
  C  C454  1  0.37339000  0.18488000  0.53907000  1
  C  C455  1  0.39612000  0.23202000  0.54730000  1
  C  C456  1  0.36632000  0.27656000  0.54860000  1
  C  C457  1  0.31509000  0.27341000  0.53740000  1
  C  C458  1  0.29249000  0.22579000  0.52880000  1
  C  C459  1  0.32100000  0.18101000  0.52970000  1
  C  C460  1  0.23655000  0.23317000  0.51780000  1
  C  C461  1  0.14038000  0.40345000  0.50749000  1
  C  C462  1  0.22858000  0.28987000  0.51970000  1
  C  C463  1  0.27485000  0.31338000  0.53200000  1
  C  C464  1  0.27780000  0.36549000  0.53810000  1
  C  C465  1  0.18729000  0.37108000  0.51545000  1
  C  C466  1  0.23394000  0.39501000  0.52640000  1
  C  C467  1  0.18427000  0.31800000  0.51150000  1
  C  C468  1  0.96301000  0.59413000  0.63727000  1
  C  C469  1  0.96093000  0.62661000  0.68488000  1
  C  C470  1  0.95270000  0.60388000  0.73202000  1
  C  C471  1  0.95140000  0.63368000  0.77656000  1
  C  C472  1  0.96260000  0.68491000  0.77341000  1
  C  C473  1  0.97120000  0.70751000  0.72579000  1
  C  C474  1  0.97030000  0.67900000  0.68101000  1
  C  C475  1  0.98220000  0.76345000  0.73317000  1
  C  C476  1  0.99251000  0.85962000  0.90345000  1
  C  C477  1  0.98030000  0.77142000  0.78987000  1
  C  C478  1  0.96800000  0.72515000  0.81338000  1
  C  C479  1  0.96190000  0.72220000  0.86549000  1
  C  C480  1  0.98455000  0.81271000  0.87108000  1
  C  C481  1  0.97360000  0.76606000  0.89501000  1
  C  C482  1  0.98850000  0.81573000  0.81800000  1
  C  C483  1  0.46301000  0.90587000  0.36273000  1
  C  C484  1  0.46093000  0.87339000  0.31512000  1
  C  C485  1  0.45270000  0.89612000  0.26798000  1
  C  C486  1  0.45140000  0.86632000  0.22344000  1
  C  C487  1  0.46260000  0.81509000  0.22659000  1
  C  C488  1  0.47120000  0.79249000  0.27421000  1
  C  C489  1  0.47030000  0.82100000  0.31899000  1
  C  C490  1  0.48220000  0.73655000  0.26683000  1
  C  C491  1  0.49251000  0.64038000  0.09655000  1
  C  C492  1  0.48030000  0.72858000  0.21013000  1
  C  C493  1  0.46800000  0.77485000  0.18662000  1
  C  C494  1  0.46190000  0.77780000  0.13451000  1
  C  C495  1  0.48455000  0.68729000  0.12892000  1
  C  C496  1  0.47360000  0.73394000  0.10499000  1
  C  C497  1  0.48850000  0.68427000  0.18200000  1
  C  C498  1  0.03699000  0.09413000  0.86273000  1
  C  C499  1  0.03907000  0.12661000  0.81512000  1
  C  C500  1  0.04730000  0.10388000  0.76798000  1
  C  C501  1  0.04860000  0.13368000  0.72344000  1
  C  C502  1  0.03740000  0.18491000  0.72659000  1
  C  C503  1  0.02880000  0.20751000  0.77421000  1
  C  C504  1  0.02970000  0.17900000  0.81899000  1
  C  C505  1  0.01780000  0.26345000  0.76683000  1
  C  C506  1  0.00749000  0.35962000  0.59655000  1
  C  C507  1  0.01970000  0.27142000  0.71013000  1
  C  C508  1  0.03200000  0.22515000  0.68662000  1
  C  C509  1  0.03810000  0.22220000  0.63451000  1
  C  C510  1  0.01545000  0.31271000  0.62892000  1
  C  C511  1  0.02640000  0.26606000  0.60499000  1
  C  C512  1  0.01150000  0.31573000  0.68200000  1
  C  C513  1  0.53699000  0.40587000  0.13727000  1
  C  C514  1  0.53907000  0.37339000  0.18488000  1
  C  C515  1  0.54730000  0.39612000  0.23202000  1
  C  C516  1  0.54860000  0.36632000  0.27656000  1
  C  C517  1  0.53740000  0.31509000  0.27341000  1
  C  C518  1  0.52880000  0.29249000  0.22579000  1
  C  C519  1  0.52970000  0.32100000  0.18101000  1
  C  C520  1  0.51780000  0.23655000  0.23317000  1
  C  C521  1  0.50749000  0.14038000  0.40345000  1
  C  C522  1  0.51970000  0.22858000  0.28987000  1
  C  C523  1  0.53200000  0.27485000  0.31338000  1
  C  C524  1  0.53810000  0.27780000  0.36549000  1
  C  C525  1  0.51545000  0.18729000  0.37108000  1
  C  C526  1  0.52640000  0.23394000  0.39501000  1
  C  C527  1  0.51150000  0.18427000  0.31800000  1
  O  O528  1  0.45586000  0.06235000  0.47131000  1
  O  O529  1  0.35524000  0.03554000  0.45453000  1
  O  O530  1  0.40569000  0.03656000  0.38204000  1
  O  O531  1  0.11948000  0.99265000  0.09960000  1
  O  O532  1  0.04883000  0.01579000  0.14648000  1
  O  O533  1  0.29844000  0.01030000  0.20590000  1
  O  O534  1  0.45283000  0.95283000  0.54717000  1
  O  O535  1  0.04414000  0.93765000  0.97131000  1
  O  O536  1  0.14476000  0.96446000  0.95453000  1
  O  O537  1  0.09431000  0.96344000  0.88204000  1
  O  O538  1  0.38052000  0.00735000  0.59960000  1
  O  O539  1  0.45117000  0.98421000  0.64648000  1
  O  O540  1  0.20156000  0.98970000  0.70590000  1
  O  O541  1  0.04717000  0.04717000  0.04717000  1
  O  O542  1  0.95586000  0.43765000  0.52869000  1
  O  O543  1  0.85524000  0.46446000  0.54547000  1
  O  O544  1  0.90569000  0.46344000  0.61796000  1
  O  O545  1  0.61948000  0.50735000  0.90040000  1
  O  O546  1  0.54883000  0.48421000  0.85352000  1
  O  O547  1  0.79844000  0.48970000  0.79410000  1
  O  O548  1  0.95283000  0.54717000  0.45283000  1
  O  O549  1  0.54414000  0.56235000  0.02869000  1
  O  O550  1  0.64476000  0.53554000  0.04547000  1
  O  O551  1  0.59431000  0.53656000  0.11796000  1
  O  O552  1  0.88052000  0.49265000  0.40040000  1
  O  O553  1  0.95117000  0.51579000  0.35352000  1
  O  O554  1  0.70156000  0.51030000  0.29410000  1
  O  O555  1  0.54717000  0.45283000  0.95283000  1
  O  O556  1  0.47131000  0.45586000  0.06235000  1
  O  O557  1  0.45453000  0.35524000  0.03554000  1
  O  O558  1  0.38204000  0.40569000  0.03656000  1
  O  O559  1  0.09960000  0.11948000  0.99265000  1
  O  O560  1  0.14648000  0.04883000  0.01579000  1
  O  O561  1  0.20590000  0.29844000  0.01030000  1
  O  O562  1  0.02869000  0.54414000  0.56235000  1
  O  O563  1  0.04547000  0.64476000  0.53554000  1
  O  O564  1  0.11796000  0.59431000  0.53656000  1
  O  O565  1  0.40040000  0.88052000  0.49265000  1
  O  O566  1  0.35352000  0.95117000  0.51579000  1
  O  O567  1  0.29410000  0.70156000  0.51030000  1
  O  O568  1  0.97131000  0.04414000  0.93765000  1
  O  O569  1  0.95453000  0.14476000  0.96446000  1
  O  O570  1  0.88204000  0.09431000  0.96344000  1
  O  O571  1  0.59960000  0.38052000  0.00735000  1
  O  O572  1  0.64648000  0.45117000  0.98421000  1
  O  O573  1  0.70590000  0.20156000  0.98970000  1
  O  O574  1  0.52869000  0.95586000  0.43765000  1
  O  O575  1  0.54547000  0.85524000  0.46446000  1
  O  O576  1  0.61796000  0.90569000  0.46344000  1
  O  O577  1  0.90040000  0.61948000  0.50735000  1
  O  O578  1  0.85352000  0.54883000  0.48421000  1
  O  O579  1  0.79410000  0.79844000  0.48970000  1
  O  O580  1  0.06235000  0.47131000  0.45586000  1
  O  O581  1  0.03554000  0.45453000  0.35524000  1
  O  O582  1  0.03656000  0.38204000  0.40569000  1
  O  O583  1  0.99265000  0.09960000  0.11948000  1
  O  O584  1  0.01579000  0.14648000  0.04883000  1
  O  O585  1  0.01030000  0.20590000  0.29844000  1
  O  O586  1  0.56235000  0.02869000  0.54414000  1
  O  O587  1  0.53554000  0.04547000  0.64476000  1
  O  O588  1  0.53656000  0.11796000  0.59431000  1
  O  O589  1  0.49265000  0.40040000  0.88052000  1
  O  O590  1  0.51579000  0.35352000  0.95117000  1
  O  O591  1  0.51030000  0.29410000  0.70156000  1
  O  O592  1  0.93765000  0.97131000  0.04414000  1
  O  O593  1  0.96446000  0.95453000  0.14476000  1
  O  O594  1  0.96344000  0.88204000  0.09431000  1
  O  O595  1  0.00735000  0.59960000  0.38052000  1
  O  O596  1  0.98421000  0.64648000  0.45117000  1
  O  O597  1  0.98970000  0.70590000  0.20156000  1
  O  O598  1  0.43765000  0.52869000  0.95586000  1
  O  O599  1  0.46446000  0.54547000  0.85524000  1
  O  O600  1  0.46344000  0.61796000  0.90569000  1
  O  O601  1  0.50735000  0.90040000  0.61948000  1
  O  O602  1  0.48421000  0.85352000  0.54883000  1
  O  O603  1  0.48970000  0.79410000  0.79844000  1
  O  O604  1  0.54414000  0.93765000  0.52869000  1
  O  O605  1  0.64476000  0.96446000  0.54547000  1
  O  O606  1  0.59431000  0.96344000  0.61796000  1
  O  O607  1  0.88052000  0.00735000  0.90040000  1
  O  O608  1  0.95117000  0.98421000  0.85352000  1
  O  O609  1  0.70156000  0.98970000  0.79410000  1
  O  O610  1  0.54717000  0.04717000  0.45283000  1
  O  O611  1  0.95586000  0.06235000  0.02869000  1
  O  O612  1  0.85524000  0.03554000  0.04547000  1
  O  O613  1  0.90569000  0.03656000  0.11796000  1
  O  O614  1  0.61948000  0.99265000  0.40040000  1
  O  O615  1  0.54883000  0.01579000  0.35352000  1
  O  O616  1  0.79844000  0.01030000  0.29410000  1
  O  O617  1  0.95283000  0.95283000  0.95283000  1
  O  O618  1  0.04414000  0.56235000  0.47131000  1
  O  O619  1  0.14476000  0.53554000  0.45453000  1
  O  O620  1  0.09431000  0.53656000  0.38204000  1
  O  O621  1  0.38052000  0.49265000  0.09960000  1
  O  O622  1  0.45117000  0.51579000  0.14648000  1
  O  O623  1  0.20156000  0.51030000  0.20590000  1
  O  O624  1  0.04717000  0.45283000  0.54717000  1
  O  O625  1  0.45586000  0.43765000  0.97131000  1
  O  O626  1  0.35524000  0.46446000  0.95453000  1
  O  O627  1  0.40569000  0.46344000  0.88204000  1
  O  O628  1  0.11948000  0.50735000  0.59960000  1
  O  O629  1  0.04883000  0.48421000  0.64648000  1
  O  O630  1  0.29844000  0.48970000  0.70590000  1
  O  O631  1  0.45283000  0.54717000  0.04717000  1
  O  O632  1  0.52869000  0.54414000  0.93765000  1
  O  O633  1  0.54547000  0.64476000  0.96446000  1
  O  O634  1  0.61796000  0.59431000  0.96344000  1
  O  O635  1  0.90040000  0.88052000  0.00735000  1
  O  O636  1  0.85352000  0.95117000  0.98421000  1
  O  O637  1  0.79410000  0.70156000  0.98970000  1
  O  O638  1  0.97131000  0.45586000  0.43765000  1
  O  O639  1  0.95453000  0.35524000  0.46446000  1
  O  O640  1  0.88204000  0.40569000  0.46344000  1
  O  O641  1  0.59960000  0.11948000  0.50735000  1
  O  O642  1  0.64648000  0.04883000  0.48421000  1
  O  O643  1  0.70590000  0.29844000  0.48970000  1
  O  O644  1  0.02869000  0.95586000  0.06235000  1
  O  O645  1  0.04547000  0.85524000  0.03554000  1
  O  O646  1  0.11796000  0.90569000  0.03656000  1
  O  O647  1  0.40040000  0.61948000  0.99265000  1
  O  O648  1  0.35352000  0.54883000  0.01579000  1
  O  O649  1  0.29410000  0.79844000  0.01030000  1
  O  O650  1  0.47131000  0.04414000  0.56235000  1
  O  O651  1  0.45453000  0.14476000  0.53554000  1
  O  O652  1  0.38204000  0.09431000  0.53656000  1
  O  O653  1  0.09960000  0.38052000  0.49265000  1
  O  O654  1  0.14648000  0.45117000  0.51579000  1
  O  O655  1  0.20590000  0.20156000  0.51030000  1
  O  O656  1  0.93765000  0.52869000  0.54414000  1
  O  O657  1  0.96446000  0.54547000  0.64476000  1
  O  O658  1  0.96344000  0.61796000  0.59431000  1
  O  O659  1  0.00735000  0.90040000  0.88052000  1
  O  O660  1  0.98421000  0.85352000  0.95117000  1
  O  O661  1  0.98970000  0.79410000  0.70156000  1
  O  O662  1  0.43765000  0.97131000  0.45586000  1
  O  O663  1  0.46446000  0.95453000  0.35524000  1
  O  O664  1  0.46344000  0.88204000  0.40569000  1
  O  O665  1  0.50735000  0.59960000  0.11948000  1
  O  O666  1  0.48421000  0.64648000  0.04883000  1
  O  O667  1  0.48970000  0.70590000  0.29844000  1
  O  O668  1  0.06235000  0.02869000  0.95586000  1
  O  O669  1  0.03554000  0.04547000  0.85524000  1
  O  O670  1  0.03656000  0.11796000  0.90569000  1
  O  O671  1  0.99265000  0.40040000  0.61948000  1
  O  O672  1  0.01579000  0.35352000  0.54883000  1
  O  O673  1  0.01030000  0.29410000  0.79844000  1
  O  O674  1  0.56235000  0.47131000  0.04414000  1
  O  O675  1  0.53554000  0.45453000  0.14476000  1
  O  O676  1  0.53656000  0.38204000  0.09431000  1
  O  O677  1  0.49265000  0.09960000  0.38052000  1
  O  O678  1  0.51579000  0.14648000  0.45117000  1
  O  O679  1  0.51030000  0.20590000  0.20156000  1
