# generated using pymatgen
data_Zr24H75C192(Br3O16)8
_symmetry_space_group_name_H-M   'P 1'
_cell_length_a   20.76900000
_cell_length_b   20.76900000
_cell_length_c   20.76900000
_cell_angle_alpha   90.00000000
_cell_angle_beta   90.00000000
_cell_angle_gamma   90.00000000
_symmetry_Int_Tables_number   1
_chemical_formula_structural   Zr24H75C192(Br3O16)8
_chemical_formula_sum   'Zr24 H75 C192 Br24 O128'
_cell_volume   8958.73641661
_cell_formula_units_Z   1
loop_
 _symmetry_equiv_pos_site_id
 _symmetry_equiv_pos_as_xyz
  1  'x, y, z'
loop_
 _atom_site_type_symbol
 _atom_site_label
 _atom_site_symmetry_multiplicity
 _atom_site_fract_x
 _atom_site_fract_y
 _atom_site_fract_z
 _atom_site_occupancy
  Zr  Zr0  1  0.11908000  0.00000000  0.00000000  1
  Zr  Zr1  1  0.11908000  0.50000000  0.50000000  1
  Zr  Zr2  1  0.61908000  0.00000000  0.50000000  1
  Zr  Zr3  1  0.61908000  0.50000000  0.00000000  1
  Zr  Zr4  1  0.88092000  0.00000000  0.00000000  1
  Zr  Zr5  1  0.88092000  0.50000000  0.50000000  1
  Zr  Zr6  1  0.38092000  0.00000000  0.50000000  1
  Zr  Zr7  1  0.38092000  0.50000000  0.00000000  1
  Zr  Zr8  1  0.00000000  0.11908000  0.00000000  1
  Zr  Zr9  1  0.00000000  0.61908000  0.50000000  1
  Zr  Zr10  1  0.50000000  0.11908000  0.50000000  1
  Zr  Zr11  1  0.50000000  0.61908000  0.00000000  1
  Zr  Zr12  1  0.00000000  0.88092000  0.00000000  1
  Zr  Zr13  1  0.00000000  0.38092000  0.50000000  1
  Zr  Zr14  1  0.50000000  0.88092000  0.50000000  1
  Zr  Zr15  1  0.50000000  0.38092000  0.00000000  1
  Zr  Zr16  1  0.00000000  0.00000000  0.11908000  1
  Zr  Zr17  1  0.00000000  0.50000000  0.61908000  1
  Zr  Zr18  1  0.50000000  0.00000000  0.61908000  1
  Zr  Zr19  1  0.50000000  0.50000000  0.11908000  1
  Zr  Zr20  1  0.00000000  0.00000000  0.88092000  1
  Zr  Zr21  1  0.00000000  0.50000000  0.38092000  1
  Zr  Zr22  1  0.50000000  0.00000000  0.38092000  1
  Zr  Zr23  1  0.50000000  0.50000000  0.88092000  1
  H  H24  1  0.84848000  0.15152000  0.05489000  1
  H  H25  1  0.84848000  0.44511000  0.34848000  1
  H  H26  1  0.84848000  0.94511000  0.84848000  1
  H  H27  1  0.28114000  0.63290000  0.50000000  1
  H  H28  1  0.71886000  0.86710000  0.00000000  1
  H  H29  1  0.71886000  0.36710000  0.50000000  1
  H  H30  1  0.21886000  0.36710000  0.00000000  1
  H  H31  1  0.71886000  0.13290000  0.00000000  1
  H  H32  1  0.71886000  0.63290000  0.50000000  1
  H  H33  1  0.21886000  0.13290000  0.50000000  1
  H  H34  1  0.21886000  0.63290000  0.00000000  1
  H  H35  1  0.28114000  0.36710000  0.50000000  1
  H  H36  1  0.78114000  0.36710000  0.00000000  1
  H  H37  1  0.00000000  0.28114000  0.13290000  1
  H  H38  1  0.00000000  0.78114000  0.63290000  1
  H  H39  1  0.50000000  0.28114000  0.63290000  1
  H  H40  1  0.50000000  0.78114000  0.13290000  1
  H  H41  1  0.00000000  0.71886000  0.86710000  1
  H  H42  1  0.50000000  0.71886000  0.36710000  1
  H  H43  1  0.50000000  0.21886000  0.86710000  1
  H  H44  1  0.00000000  0.71886000  0.13290000  1
  H  H45  1  0.00000000  0.21886000  0.63290000  1
  H  H46  1  0.50000000  0.71886000  0.63290000  1
  H  H47  1  0.50000000  0.21886000  0.13290000  1
  H  H48  1  0.00000000  0.28114000  0.86710000  1
  H  H49  1  0.00000000  0.78114000  0.36710000  1
  H  H50  1  0.50000000  0.28114000  0.36710000  1
  H  H51  1  0.50000000  0.78114000  0.86710000  1
  H  H52  1  0.13290000  0.00000000  0.28114000  1
  H  H53  1  0.13290000  0.50000000  0.78114000  1
  H  H54  1  0.63290000  0.00000000  0.78114000  1
  H  H55  1  0.63290000  0.50000000  0.28114000  1
  H  H56  1  0.86710000  0.00000000  0.71886000  1
  H  H57  1  0.86710000  0.50000000  0.21886000  1
  H  H58  1  0.36710000  0.00000000  0.21886000  1
  H  H59  1  0.36710000  0.50000000  0.71886000  1
  H  H60  1  0.13290000  0.00000000  0.71886000  1
  H  H61  1  0.13290000  0.50000000  0.21886000  1
  H  H62  1  0.63290000  0.00000000  0.21886000  1
  H  H63  1  0.63290000  0.50000000  0.71886000  1
  H  H64  1  0.86710000  0.00000000  0.28114000  1
  H  H65  1  0.36710000  0.50000000  0.28114000  1
  H  H66  1  0.13290000  0.28114000  0.00000000  1
  H  H67  1  0.13290000  0.78114000  0.50000000  1
  H  H68  1  0.63290000  0.28114000  0.50000000  1
  H  H69  1  0.63290000  0.78114000  0.00000000  1
  H  H70  1  0.86710000  0.71886000  0.00000000  1
  H  H71  1  0.86710000  0.21886000  0.50000000  1
  H  H72  1  0.36710000  0.71886000  0.50000000  1
  H  H73  1  0.36710000  0.21886000  0.00000000  1
  H  H74  1  0.13290000  0.71886000  0.00000000  1
  H  H75  1  0.13290000  0.21886000  0.50000000  1
  H  H76  1  0.63290000  0.71886000  0.50000000  1
  H  H77  1  0.86710000  0.28114000  0.00000000  1
  H  H78  1  0.86710000  0.78114000  0.50000000  1
  H  H79  1  0.36710000  0.78114000  0.00000000  1
  H  H80  1  0.28114000  0.00000000  0.86710000  1
  H  H81  1  0.78114000  0.50000000  0.86710000  1
  H  H82  1  0.71886000  0.00000000  0.13290000  1
  H  H83  1  0.71886000  0.50000000  0.63290000  1
  H  H84  1  0.21886000  0.00000000  0.63290000  1
  H  H85  1  0.21886000  0.50000000  0.13290000  1
  H  H86  1  0.71886000  0.00000000  0.86710000  1
  H  H87  1  0.21886000  0.50000000  0.86710000  1
  H  H88  1  0.28114000  0.00000000  0.13290000  1
  H  H89  1  0.78114000  0.50000000  0.13290000  1
  H  H90  1  0.50000000  0.63290000  0.71886000  1
  H  H91  1  0.00000000  0.86710000  0.28114000  1
  H  H92  1  0.00000000  0.36710000  0.78114000  1
  H  H93  1  0.50000000  0.36710000  0.28114000  1
  H  H94  1  0.00000000  0.13290000  0.28114000  1
  H  H95  1  0.00000000  0.63290000  0.78114000  1
  H  H96  1  0.00000000  0.36710000  0.21886000  1
  H  H97  1  0.50000000  0.86710000  0.21886000  1
  H  H98  1  0.50000000  0.36710000  0.71886000  1
  C  C99  1  0.26650000  0.18580000  0.00000000  1
  C  C100  1  0.26650000  0.68580000  0.50000000  1
  C  C101  1  0.76650000  0.18580000  0.50000000  1
  C  C102  1  0.76650000  0.68580000  0.00000000  1
  C  C103  1  0.73350000  0.81420000  0.00000000  1
  C  C104  1  0.73350000  0.31420000  0.50000000  1
  C  C105  1  0.23350000  0.81420000  0.50000000  1
  C  C106  1  0.23350000  0.31420000  0.00000000  1
  C  C107  1  0.73350000  0.18580000  0.00000000  1
  C  C108  1  0.73350000  0.68580000  0.50000000  1
  C  C109  1  0.23350000  0.18580000  0.50000000  1
  C  C110  1  0.23350000  0.68580000  0.00000000  1
  C  C111  1  0.26650000  0.81420000  0.00000000  1
  C  C112  1  0.26650000  0.31420000  0.50000000  1
  C  C113  1  0.76650000  0.81420000  0.50000000  1
  C  C114  1  0.76650000  0.31420000  0.00000000  1
  C  C115  1  0.00000000  0.26650000  0.18580000  1
  C  C116  1  0.00000000  0.76650000  0.68580000  1
  C  C117  1  0.50000000  0.26650000  0.68580000  1
  C  C118  1  0.50000000  0.76650000  0.18580000  1
  C  C119  1  0.00000000  0.73350000  0.81420000  1
  C  C120  1  0.00000000  0.23350000  0.31420000  1
  C  C121  1  0.50000000  0.73350000  0.31420000  1
  C  C122  1  0.50000000  0.23350000  0.81420000  1
  C  C123  1  0.00000000  0.73350000  0.18580000  1
  C  C124  1  0.00000000  0.23350000  0.68580000  1
  C  C125  1  0.50000000  0.73350000  0.68580000  1
  C  C126  1  0.50000000  0.23350000  0.18580000  1
  C  C127  1  0.00000000  0.26650000  0.81420000  1
  C  C128  1  0.00000000  0.76650000  0.31420000  1
  C  C129  1  0.50000000  0.26650000  0.31420000  1
  C  C130  1  0.50000000  0.76650000  0.81420000  1
  C  C131  1  0.18580000  0.00000000  0.26650000  1
  C  C132  1  0.18580000  0.50000000  0.76650000  1
  C  C133  1  0.68580000  0.00000000  0.76650000  1
  C  C134  1  0.68580000  0.50000000  0.26650000  1
  C  C135  1  0.81420000  0.00000000  0.73350000  1
  C  C136  1  0.81420000  0.50000000  0.23350000  1
  C  C137  1  0.31420000  0.00000000  0.23350000  1
  C  C138  1  0.31420000  0.50000000  0.73350000  1
  C  C139  1  0.18580000  0.00000000  0.73350000  1
  C  C140  1  0.18580000  0.50000000  0.23350000  1
  C  C141  1  0.68580000  0.00000000  0.23350000  1
  C  C142  1  0.68580000  0.50000000  0.73350000  1
  C  C143  1  0.81420000  0.00000000  0.26650000  1
  C  C144  1  0.81420000  0.50000000  0.76650000  1
  C  C145  1  0.31420000  0.00000000  0.76650000  1
  C  C146  1  0.31420000  0.50000000  0.26650000  1
  C  C147  1  0.18580000  0.26650000  0.00000000  1
  C  C148  1  0.18580000  0.76650000  0.50000000  1
  C  C149  1  0.68580000  0.26650000  0.50000000  1
  C  C150  1  0.68580000  0.76650000  0.00000000  1
  C  C151  1  0.81420000  0.73350000  0.00000000  1
  C  C152  1  0.81420000  0.23350000  0.50000000  1
  C  C153  1  0.31420000  0.73350000  0.50000000  1
  C  C154  1  0.31420000  0.23350000  0.00000000  1
  C  C155  1  0.18580000  0.73350000  0.00000000  1
  C  C156  1  0.18580000  0.23350000  0.50000000  1
  C  C157  1  0.68580000  0.73350000  0.50000000  1
  C  C158  1  0.68580000  0.23350000  0.00000000  1
  C  C159  1  0.81420000  0.26650000  0.00000000  1
  C  C160  1  0.81420000  0.76650000  0.50000000  1
  C  C161  1  0.31420000  0.26650000  0.50000000  1
  C  C162  1  0.31420000  0.76650000  0.00000000  1
  C  C163  1  0.26650000  0.00000000  0.81420000  1
  C  C164  1  0.26650000  0.50000000  0.31420000  1
  C  C165  1  0.76650000  0.00000000  0.31420000  1
  C  C166  1  0.76650000  0.50000000  0.81420000  1
  C  C167  1  0.73350000  0.00000000  0.18580000  1
  C  C168  1  0.73350000  0.50000000  0.68580000  1
  C  C169  1  0.23350000  0.00000000  0.68580000  1
  C  C170  1  0.23350000  0.50000000  0.18580000  1
  C  C171  1  0.73350000  0.00000000  0.81420000  1
  C  C172  1  0.73350000  0.50000000  0.31420000  1
  C  C173  1  0.23350000  0.00000000  0.31420000  1
  C  C174  1  0.23350000  0.50000000  0.81420000  1
  C  C175  1  0.26650000  0.00000000  0.18580000  1
  C  C176  1  0.26650000  0.50000000  0.68580000  1
  C  C177  1  0.76650000  0.00000000  0.68580000  1
  C  C178  1  0.76650000  0.50000000  0.18580000  1
  C  C179  1  0.00000000  0.18580000  0.73350000  1
  C  C180  1  0.00000000  0.68580000  0.23350000  1
  C  C181  1  0.50000000  0.18580000  0.23350000  1
  C  C182  1  0.50000000  0.68580000  0.73350000  1
  C  C183  1  0.00000000  0.81420000  0.26650000  1
  C  C184  1  0.00000000  0.31420000  0.76650000  1
  C  C185  1  0.50000000  0.81420000  0.76650000  1
  C  C186  1  0.50000000  0.31420000  0.26650000  1
  C  C187  1  0.00000000  0.18580000  0.26650000  1
  C  C188  1  0.00000000  0.68580000  0.76650000  1
  C  C189  1  0.50000000  0.18580000  0.76650000  1
  C  C190  1  0.50000000  0.68580000  0.26650000  1
  C  C191  1  0.00000000  0.81420000  0.73350000  1
  C  C192  1  0.00000000  0.31420000  0.23350000  1
  C  C193  1  0.50000000  0.81420000  0.23350000  1
  C  C194  1  0.50000000  0.31420000  0.73350000  1
  C  C195  1  0.15152000  0.15152000  0.00000000  1
  C  C196  1  0.20241000  0.20241000  0.00000000  1
  C  C197  1  0.15152000  0.65152000  0.50000000  1
  C  C198  1  0.20241000  0.70241000  0.50000000  1
  C  C199  1  0.65152000  0.15152000  0.50000000  1
  C  C200  1  0.70241000  0.20241000  0.50000000  1
  C  C201  1  0.65152000  0.65152000  0.00000000  1
  C  C202  1  0.70241000  0.70241000  0.00000000  1
  C  C203  1  0.84848000  0.84848000  0.00000000  1
  C  C204  1  0.79759000  0.79759000  0.00000000  1
  C  C205  1  0.84848000  0.34848000  0.50000000  1
  C  C206  1  0.79759000  0.29759000  0.50000000  1
  C  C207  1  0.34848000  0.84848000  0.50000000  1
  C  C208  1  0.29759000  0.79759000  0.50000000  1
  C  C209  1  0.34848000  0.34848000  0.00000000  1
  C  C210  1  0.29759000  0.29759000  0.00000000  1
  C  C211  1  0.84848000  0.15152000  0.00000000  1
  C  C212  1  0.79759000  0.20241000  0.00000000  1
  C  C213  1  0.84848000  0.65152000  0.50000000  1
  C  C214  1  0.79759000  0.70241000  0.50000000  1
  C  C215  1  0.34848000  0.15152000  0.50000000  1
  C  C216  1  0.29759000  0.20241000  0.50000000  1
  C  C217  1  0.34848000  0.65152000  0.00000000  1
  C  C218  1  0.29759000  0.70241000  0.00000000  1
  C  C219  1  0.15152000  0.84848000  0.00000000  1
  C  C220  1  0.20241000  0.79759000  0.00000000  1
  C  C221  1  0.15152000  0.34848000  0.50000000  1
  C  C222  1  0.20241000  0.29759000  0.50000000  1
  C  C223  1  0.65152000  0.84848000  0.50000000  1
  C  C224  1  0.70241000  0.79759000  0.50000000  1
  C  C225  1  0.65152000  0.34848000  0.00000000  1
  C  C226  1  0.70241000  0.29759000  0.00000000  1
  C  C227  1  0.00000000  0.15152000  0.15152000  1
  C  C228  1  0.00000000  0.20241000  0.20241000  1
  C  C229  1  0.00000000  0.65152000  0.65152000  1
  C  C230  1  0.00000000  0.70241000  0.70241000  1
  C  C231  1  0.50000000  0.15152000  0.65152000  1
  C  C232  1  0.50000000  0.20241000  0.70241000  1
  C  C233  1  0.50000000  0.65152000  0.15152000  1
  C  C234  1  0.50000000  0.70241000  0.20241000  1
  C  C235  1  0.00000000  0.84848000  0.84848000  1
  C  C236  1  0.00000000  0.79759000  0.79759000  1
  C  C237  1  0.00000000  0.34848000  0.34848000  1
  C  C238  1  0.00000000  0.29759000  0.29759000  1
  C  C239  1  0.50000000  0.84848000  0.34848000  1
  C  C240  1  0.50000000  0.79759000  0.29759000  1
  C  C241  1  0.50000000  0.34848000  0.84848000  1
  C  C242  1  0.50000000  0.29759000  0.79759000  1
  C  C243  1  0.00000000  0.84848000  0.15152000  1
  C  C244  1  0.00000000  0.79759000  0.20241000  1
  C  C245  1  0.00000000  0.34848000  0.65152000  1
  C  C246  1  0.00000000  0.29759000  0.70241000  1
  C  C247  1  0.50000000  0.84848000  0.65152000  1
  C  C248  1  0.50000000  0.79759000  0.70241000  1
  C  C249  1  0.50000000  0.34848000  0.15152000  1
  C  C250  1  0.50000000  0.29759000  0.20241000  1
  C  C251  1  0.00000000  0.15152000  0.84848000  1
  C  C252  1  0.00000000  0.20241000  0.79759000  1
  C  C253  1  0.00000000  0.65152000  0.34848000  1
  C  C254  1  0.00000000  0.70241000  0.29759000  1
  C  C255  1  0.50000000  0.15152000  0.34848000  1
  C  C256  1  0.50000000  0.20241000  0.29759000  1
  C  C257  1  0.50000000  0.65152000  0.84848000  1
  C  C258  1  0.50000000  0.70241000  0.79759000  1
  C  C259  1  0.15152000  0.00000000  0.15152000  1
  C  C260  1  0.20241000  0.00000000  0.20241000  1
  C  C261  1  0.15152000  0.50000000  0.65152000  1
  C  C262  1  0.20241000  0.50000000  0.70241000  1
  C  C263  1  0.65152000  0.00000000  0.65152000  1
  C  C264  1  0.70241000  0.00000000  0.70241000  1
  C  C265  1  0.65152000  0.50000000  0.15152000  1
  C  C266  1  0.70241000  0.50000000  0.20241000  1
  C  C267  1  0.84848000  0.00000000  0.84848000  1
  C  C268  1  0.79759000  0.00000000  0.79759000  1
  C  C269  1  0.84848000  0.50000000  0.34848000  1
  C  C270  1  0.79759000  0.50000000  0.29759000  1
  C  C271  1  0.34848000  0.00000000  0.34848000  1
  C  C272  1  0.29759000  0.00000000  0.29759000  1
  C  C273  1  0.34848000  0.50000000  0.84848000  1
  C  C274  1  0.29759000  0.50000000  0.79759000  1
  C  C275  1  0.15152000  0.00000000  0.84848000  1
  C  C276  1  0.20241000  0.00000000  0.79759000  1
  C  C277  1  0.15152000  0.50000000  0.34848000  1
  C  C278  1  0.20241000  0.50000000  0.29759000  1
  C  C279  1  0.65152000  0.00000000  0.34848000  1
  C  C280  1  0.70241000  0.00000000  0.29759000  1
  C  C281  1  0.65152000  0.50000000  0.84848000  1
  C  C282  1  0.70241000  0.50000000  0.79759000  1
  C  C283  1  0.84848000  0.00000000  0.15152000  1
  C  C284  1  0.79759000  0.00000000  0.20241000  1
  C  C285  1  0.84848000  0.50000000  0.65152000  1
  C  C286  1  0.79759000  0.50000000  0.70241000  1
  C  C287  1  0.34848000  0.00000000  0.65152000  1
  C  C288  1  0.29759000  0.00000000  0.70241000  1
  C  C289  1  0.34848000  0.50000000  0.15152000  1
  C  C290  1  0.29759000  0.50000000  0.20241000  1
  Br  Br291  1  0.31000000  0.09960000  0.01420000  1
  Br  Br292  1  0.81000000  0.09960000  0.51420000  1
  Br  Br293  1  0.19000000  0.90040000  0.51420000  1
  Br  Br294  1  0.31000000  0.90040000  0.98580000  1
  Br  Br295  1  0.40040000  0.98580000  0.81000000  1
  Br  Br296  1  0.31000000  0.48580000  0.59960000  1
  Br  Br297  1  0.81000000  0.98580000  0.59960000  1
  Br  Br298  1  0.01420000  0.09960000  0.69000000  1
  Br  Br299  1  0.51420000  0.09960000  0.19000000  1
  Br  Br300  1  0.51420000  0.90040000  0.81000000  1
  Br  Br301  1  0.48580000  0.59960000  0.31000000  1
  Br  Br302  1  0.81000000  0.59960000  0.98580000  1
  Br  Br303  1  0.81000000  0.90040000  0.51420000  1
  Br  Br304  1  0.98580000  0.19000000  0.40040000  1
  Br  Br305  1  0.90040000  0.51420000  0.81000000  1
  Br  Br306  1  0.40040000  0.31000000  0.48580000  1
  Br  Br307  1  0.59960000  0.19000000  0.98580000  1
  Br  Br308  1  0.31000000  0.48580000  0.40040000  1
  Br  Br309  1  0.81000000  0.98580000  0.40040000  1
  Br  Br310  1  0.69000000  0.51420000  0.40040000  1
  Br  Br311  1  0.19000000  0.01420000  0.40040000  1
  Br  Br312  1  0.98580000  0.59960000  0.19000000  1
  Br  Br313  1  0.01420000  0.90040000  0.69000000  1
  Br  Br314  1  0.51420000  0.09960000  0.81000000  1
  O  O315  1  0.17116000  0.09340000  0.00000000  1
  O  O316  1  0.17116000  0.59340000  0.50000000  1
  O  O317  1  0.67116000  0.09340000  0.50000000  1
  O  O318  1  0.67116000  0.59340000  0.00000000  1
  O  O319  1  0.82884000  0.90660000  0.00000000  1
  O  O320  1  0.82884000  0.40660000  0.50000000  1
  O  O321  1  0.32884000  0.90660000  0.50000000  1
  O  O322  1  0.32884000  0.40660000  0.00000000  1
  O  O323  1  0.82884000  0.09340000  0.00000000  1
  O  O324  1  0.82884000  0.59340000  0.50000000  1
  O  O325  1  0.32884000  0.09340000  0.50000000  1
  O  O326  1  0.32884000  0.59340000  0.00000000  1
  O  O327  1  0.17116000  0.90660000  0.00000000  1
  O  O328  1  0.17116000  0.40660000  0.50000000  1
  O  O329  1  0.67116000  0.90660000  0.50000000  1
  O  O330  1  0.67116000  0.40660000  0.00000000  1
  O  O331  1  0.00000000  0.17116000  0.09340000  1
  O  O332  1  0.00000000  0.67116000  0.59340000  1
  O  O333  1  0.50000000  0.17116000  0.59340000  1
  O  O334  1  0.50000000  0.67116000  0.09340000  1
  O  O335  1  0.00000000  0.82884000  0.90660000  1
  O  O336  1  0.00000000  0.32884000  0.40660000  1
  O  O337  1  0.50000000  0.82884000  0.40660000  1
  O  O338  1  0.50000000  0.32884000  0.90660000  1
  O  O339  1  0.00000000  0.82884000  0.09340000  1
  O  O340  1  0.00000000  0.32884000  0.59340000  1
  O  O341  1  0.50000000  0.82884000  0.59340000  1
  O  O342  1  0.50000000  0.32884000  0.09340000  1
  O  O343  1  0.00000000  0.17116000  0.90660000  1
  O  O344  1  0.00000000  0.67116000  0.40660000  1
  O  O345  1  0.50000000  0.17116000  0.40660000  1
  O  O346  1  0.50000000  0.67116000  0.90660000  1
  O  O347  1  0.09340000  0.00000000  0.17116000  1
  O  O348  1  0.09340000  0.50000000  0.67116000  1
  O  O349  1  0.59340000  0.00000000  0.67116000  1
  O  O350  1  0.59340000  0.50000000  0.17116000  1
  O  O351  1  0.90660000  0.00000000  0.82884000  1
  O  O352  1  0.90660000  0.50000000  0.32884000  1
  O  O353  1  0.40660000  0.00000000  0.32884000  1
  O  O354  1  0.40660000  0.50000000  0.82884000  1
  O  O355  1  0.09340000  0.00000000  0.82884000  1
  O  O356  1  0.09340000  0.50000000  0.32884000  1
  O  O357  1  0.59340000  0.00000000  0.32884000  1
  O  O358  1  0.59340000  0.50000000  0.82884000  1
  O  O359  1  0.90660000  0.00000000  0.17116000  1
  O  O360  1  0.90660000  0.50000000  0.67116000  1
  O  O361  1  0.40660000  0.00000000  0.67116000  1
  O  O362  1  0.40660000  0.50000000  0.17116000  1
  O  O363  1  0.09340000  0.17116000  0.00000000  1
  O  O364  1  0.09340000  0.67116000  0.50000000  1
  O  O365  1  0.59340000  0.17116000  0.50000000  1
  O  O366  1  0.59340000  0.67116000  0.00000000  1
  O  O367  1  0.90660000  0.82884000  0.00000000  1
  O  O368  1  0.90660000  0.32884000  0.50000000  1
  O  O369  1  0.40660000  0.82884000  0.50000000  1
  O  O370  1  0.40660000  0.32884000  0.00000000  1
  O  O371  1  0.09340000  0.82884000  0.00000000  1
  O  O372  1  0.09340000  0.32884000  0.50000000  1
  O  O373  1  0.59340000  0.82884000  0.50000000  1
  O  O374  1  0.59340000  0.32884000  0.00000000  1
  O  O375  1  0.90660000  0.17116000  0.00000000  1
  O  O376  1  0.90660000  0.67116000  0.50000000  1
  O  O377  1  0.40660000  0.17116000  0.50000000  1
  O  O378  1  0.40660000  0.67116000  0.00000000  1
  O  O379  1  0.17116000  0.00000000  0.90660000  1
  O  O380  1  0.17116000  0.50000000  0.40660000  1
  O  O381  1  0.67116000  0.00000000  0.40660000  1
  O  O382  1  0.67116000  0.50000000  0.90660000  1
  O  O383  1  0.82884000  0.00000000  0.09340000  1
  O  O384  1  0.82884000  0.50000000  0.59340000  1
  O  O385  1  0.32884000  0.00000000  0.59340000  1
  O  O386  1  0.32884000  0.50000000  0.09340000  1
  O  O387  1  0.82884000  0.00000000  0.90660000  1
  O  O388  1  0.82884000  0.50000000  0.40660000  1
  O  O389  1  0.32884000  0.00000000  0.40660000  1
  O  O390  1  0.32884000  0.50000000  0.90660000  1
  O  O391  1  0.17116000  0.00000000  0.09340000  1
  O  O392  1  0.17116000  0.50000000  0.59340000  1
  O  O393  1  0.67116000  0.00000000  0.59340000  1
  O  O394  1  0.67116000  0.50000000  0.09340000  1
  O  O395  1  0.00000000  0.09340000  0.82884000  1
  O  O396  1  0.00000000  0.59340000  0.32884000  1
  O  O397  1  0.50000000  0.09340000  0.32884000  1
  O  O398  1  0.50000000  0.59340000  0.82884000  1
  O  O399  1  0.00000000  0.90660000  0.17116000  1
  O  O400  1  0.00000000  0.40660000  0.67116000  1
  O  O401  1  0.50000000  0.90660000  0.67116000  1
  O  O402  1  0.50000000  0.40660000  0.17116000  1
  O  O403  1  0.00000000  0.09340000  0.17116000  1
  O  O404  1  0.00000000  0.59340000  0.67116000  1
  O  O405  1  0.50000000  0.09340000  0.67116000  1
  O  O406  1  0.50000000  0.59340000  0.17116000  1
  O  O407  1  0.00000000  0.90660000  0.82884000  1
  O  O408  1  0.00000000  0.40660000  0.32884000  1
  O  O409  1  0.50000000  0.90660000  0.32884000  1
  O  O410  1  0.50000000  0.40660000  0.82884000  1
  O  O411  1  0.06749000  0.06749000  0.06749000  1
  O  O412  1  0.06749000  0.56749000  0.56749000  1
  O  O413  1  0.56749000  0.06749000  0.56749000  1
  O  O414  1  0.56749000  0.56749000  0.06749000  1
  O  O415  1  0.93251000  0.93251000  0.06749000  1
  O  O416  1  0.93251000  0.43251000  0.56749000  1
  O  O417  1  0.43251000  0.93251000  0.56749000  1
  O  O418  1  0.43251000  0.43251000  0.06749000  1
  O  O419  1  0.93251000  0.06749000  0.93251000  1
  O  O420  1  0.93251000  0.56749000  0.43251000  1
  O  O421  1  0.43251000  0.06749000  0.43251000  1
  O  O422  1  0.43251000  0.56749000  0.93251000  1
  O  O423  1  0.06749000  0.93251000  0.93251000  1
  O  O424  1  0.06749000  0.43251000  0.43251000  1
  O  O425  1  0.56749000  0.93251000  0.43251000  1
  O  O426  1  0.56749000  0.43251000  0.93251000  1
  O  O427  1  0.06749000  0.06749000  0.93251000  1
  O  O428  1  0.06749000  0.56749000  0.43251000  1
  O  O429  1  0.56749000  0.06749000  0.43251000  1
  O  O430  1  0.56749000  0.56749000  0.93251000  1
  O  O431  1  0.93251000  0.93251000  0.93251000  1
  O  O432  1  0.93251000  0.43251000  0.43251000  1
  O  O433  1  0.43251000  0.93251000  0.43251000  1
  O  O434  1  0.43251000  0.43251000  0.93251000  1
  O  O435  1  0.06749000  0.93251000  0.06749000  1
  O  O436  1  0.06749000  0.43251000  0.56749000  1
  O  O437  1  0.56749000  0.93251000  0.56749000  1
  O  O438  1  0.56749000  0.43251000  0.06749000  1
  O  O439  1  0.93251000  0.06749000  0.06749000  1
  O  O440  1  0.93251000  0.56749000  0.56749000  1
  O  O441  1  0.43251000  0.06749000  0.56749000  1
  O  O442  1  0.43251000  0.56749000  0.06749000  1
