# generated using pymatgen
data_Zr3H12(C3O2)8
_symmetry_space_group_name_H-M   'P 1'
_cell_length_a   14.67069794
_cell_length_b   14.67069794
_cell_length_c   14.67069794
_cell_angle_alpha   60.00000000
_cell_angle_beta   60.00000000
_cell_angle_gamma   60.00000000
_symmetry_Int_Tables_number   1
_chemical_formula_structural   Zr3H12(C3O2)8
_chemical_formula_sum   'Zr6 H24 C48 O32'
_cell_volume   2232.73576132
_cell_formula_units_Z   2
loop_
 _symmetry_equiv_pos_site_id
 _symmetry_equiv_pos_as_xyz
  1  'x, y, z'
loop_
 _atom_site_type_symbol
 _atom_site_label
 _atom_site_symmetry_multiplicity
 _atom_site_fract_x
 _atom_site_fract_y
 _atom_site_fract_z
 _atom_site_occupancy
  C  C0  1  0.54704000  0.08146000  0.91854000  1
  C  C1  1  0.45296000  0.91854000  0.08146000  1
  C  C2  1  0.91854000  0.45296000  0.54704000  1
  C  C3  1  0.08146000  0.54704000  0.45296000  1
  C  C4  1  0.08146000  0.91854000  0.54704000  1
  C  C5  1  0.91854000  0.08146000  0.45296000  1
  C  C6  1  0.45296000  0.54704000  0.91854000  1
  C  C7  1  0.54704000  0.45296000  0.08146000  1
  C  C8  1  0.91854000  0.54704000  0.08146000  1
  C  C9  1  0.08146000  0.45296000  0.91854000  1
  C  C10  1  0.54704000  0.91854000  0.45296000  1
  C  C11  1  0.45296000  0.08146000  0.54704000  1
  C  C12  1  0.54704000  0.91854000  0.08146000  1
  C  C13  1  0.45296000  0.08146000  0.91854000  1
  C  C14  1  0.91854000  0.54704000  0.45296000  1
  C  C15  1  0.08146000  0.45296000  0.54704000  1
  C  C16  1  0.54704000  0.08146000  0.45296000  1
  C  C17  1  0.45296000  0.91854000  0.54704000  1
  C  C18  1  0.91854000  0.45296000  0.08146000  1
  C  C19  1  0.08146000  0.54704000  0.91854000  1
  C  C20  1  0.54704000  0.45296000  0.91854000  1
  C  C21  1  0.45296000  0.54704000  0.08146000  1
  C  C22  1  0.91854000  0.08146000  0.54704000  1
  C  C23  1  0.08146000  0.91854000  0.45296000  1
  C  C24  1  0.69662000  0.00000000  0.00000000  1
  C  C25  1  0.59388000  0.00000000  0.00000000  1
  C  C26  1  0.30338000  0.00000000  0.00000000  1
  C  C27  1  0.40612000  0.00000000  0.00000000  1
  C  C28  1  0.00000000  0.30338000  0.69662000  1
  C  C29  1  0.00000000  0.40612000  0.59388000  1
  C  C30  1  0.00000000  0.69662000  0.30338000  1
  C  C31  1  0.00000000  0.59388000  0.40612000  1
  C  C32  1  1.00000000  0.00000000  0.69662000  1
  C  C33  1  1.00000000  0.00000000  0.59388000  1
  C  C34  1  1.00000000  0.00000000  0.30338000  1
  C  C35  1  0.00000000  0.00000000  0.40612000  1
  C  C36  1  0.30338000  0.69662000  0.00000000  1
  C  C37  1  0.40612000  0.59388000  0.00000000  1
  C  C38  1  0.69662000  0.30338000  0.00000000  1
  C  C39  1  0.59388000  0.40612000  0.00000000  1
  C  C40  1  1.00000000  0.69662000  0.00000000  1
  C  C41  1  1.00000000  0.59388000  0.00000000  1
  C  C42  1  1.00000000  0.30338000  0.00000000  1
  C  C43  1  0.00000000  0.40612000  0.00000000  1
  C  C44  1  0.69662000  0.00000000  0.30338000  1
  C  C45  1  0.59388000  0.00000000  0.40612000  1
  C  C46  1  0.30338000  0.00000000  0.69662000  1
  C  C47  1  0.40612000  0.00000000  0.59388000  1
  H  H48  1  0.57950000  0.13750000  0.86250000  1
  H  H49  1  0.42050000  0.86250000  0.13750000  1
  H  H50  1  0.86250000  0.42050000  0.57950000  1
  H  H51  1  0.13750000  0.57950000  0.42050000  1
  H  H52  1  0.13750000  0.86250000  0.57950000  1
  H  H53  1  0.86250000  0.13750000  0.42050000  1
  H  H54  1  0.42050000  0.57950000  0.86250000  1
  H  H55  1  0.57950000  0.42050000  0.13750000  1
  H  H56  1  0.86250000  0.57950000  0.13750000  1
  H  H57  1  0.13750000  0.42050000  0.86250000  1
  H  H58  1  0.57950000  0.86250000  0.42050000  1
  H  H59  1  0.42050000  0.13750000  0.57950000  1
  H  H60  1  0.57950000  0.86250000  0.13750000  1
  H  H61  1  0.42050000  0.13750000  0.86250000  1
  H  H62  1  0.86250000  0.57950000  0.42050000  1
  H  H63  1  0.13750000  0.42050000  0.57950000  1
  H  H64  1  0.57950000  0.13750000  0.42050000  1
  H  H65  1  0.42050000  0.86250000  0.57950000  1
  H  H66  1  0.86250000  0.42050000  0.13750000  1
  H  H67  1  0.13750000  0.57950000  0.86250000  1
  H  H68  1  0.57950000  0.42050000  0.86250000  1
  H  H69  1  0.42050000  0.57950000  0.13750000  1
  H  H70  1  0.86250000  0.13750000  0.57950000  1
  H  H71  1  0.13750000  0.86250000  0.42050000  1
  O  O72  1  0.73569000  0.92465000  0.07535000  1
  O  O73  1  0.26431000  0.07535000  0.92465000  1
  O  O74  1  0.07535000  0.26431000  0.73569000  1
  O  O75  1  0.92465000  0.73569000  0.26431000  1
  O  O76  1  0.92465000  0.07535000  0.73569000  1
  O  O77  1  0.07535000  0.92465000  0.26431000  1
  O  O78  1  0.26431000  0.73569000  0.07535000  1
  O  O79  1  0.73569000  0.26431000  0.92465000  1
  O  O80  1  0.07535000  0.73569000  0.92465000  1
  O  O81  1  0.92465000  0.26431000  0.07535000  1
  O  O82  1  0.73569000  0.07535000  0.26431000  1
  O  O83  1  0.26431000  0.92465000  0.73569000  1
  O  O84  1  0.73569000  0.07535000  0.92465000  1
  O  O85  1  0.26431000  0.92465000  0.07535000  1
  O  O86  1  0.07535000  0.73569000  0.26431000  1
  O  O87  1  0.92465000  0.26431000  0.73569000  1
  O  O88  1  0.73569000  0.92465000  0.26431000  1
  O  O89  1  0.26431000  0.07535000  0.73569000  1
  O  O90  1  0.07535000  0.26431000  0.92465000  1
  O  O91  1  0.92465000  0.73569000  0.07535000  1
  O  O92  1  0.73569000  0.26431000  0.07535000  1
  O  O93  1  0.26431000  0.73569000  0.92465000  1
  O  O94  1  0.07535000  0.92465000  0.73569000  1
  O  O95  1  0.92465000  0.07535000  0.26431000  1
  O  O96  1  0.93320000  0.93320000  0.93320000  1
  O  O97  1  0.20040000  0.93320000  0.93320000  1
  O  O98  1  0.93320000  0.20040000  0.93320000  1
  O  O99  1  0.93320000  0.93320000  0.20040000  1
  O  O100  1  0.79960000  0.06680000  0.06680000  1
  O  O101  1  0.06680000  0.06680000  0.06680000  1
  O  O102  1  0.06680000  0.79960000  0.06680000  1
  O  O103  1  0.06680000  0.06680000  0.79960000  1
  Zr  Zr104  1  0.88043000  0.88043000  0.11957000  1
  Zr  Zr105  1  0.11957000  0.11957000  0.88043000  1
  Zr  Zr106  1  0.88043000  0.11957000  0.88043000  1
  Zr  Zr107  1  0.11957000  0.88043000  0.11957000  1
  Zr  Zr108  1  0.11957000  0.88043000  0.88043000  1
  Zr  Zr109  1  0.88043000  0.11957000  0.11957000  1
