# generated using pymatgen
data_Zr6H46C99N4(O4F3)8
_symmetry_space_group_name_H-M   'P 1'
_cell_length_a   18.87840000
_cell_length_b   23.08550000
_cell_length_c   23.08550000
_cell_angle_alpha   90.00000000
_cell_angle_beta   90.00000000
_cell_angle_gamma   90.00000000
_symmetry_Int_Tables_number   1
_chemical_formula_structural   Zr6H46C99N4(O4F3)8
_chemical_formula_sum   'Zr12 H92 C198 N8 O64 F48'
_cell_volume   10061.06035302
_cell_formula_units_Z   2
loop_
 _symmetry_equiv_pos_site_id
 _symmetry_equiv_pos_as_xyz
  1  'x, y, z'
loop_
 _atom_site_type_symbol
 _atom_site_label
 _atom_site_symmetry_multiplicity
 _atom_site_fract_x
 _atom_site_fract_y
 _atom_site_fract_z
 _atom_site_occupancy
  Zr  Zr0  1  0.09250000  0.42440000  0.00000000  1
  Zr  Zr1  1  0.09250000  0.57560000  0.00000000  1
  Zr  Zr2  1  0.59250000  0.00000000  0.42440000  1
  Zr  Zr3  1  0.59250000  0.00000000  0.57560000  1
  Zr  Zr4  1  0.90750000  0.57560000  0.00000000  1
  Zr  Zr5  1  0.90750000  0.42440000  0.00000000  1
  Zr  Zr6  1  0.40750000  0.00000000  0.42440000  1
  Zr  Zr7  1  0.40750000  0.00000000  0.57560000  1
  Zr  Zr8  1  0.00000000  0.50000000  0.10771000  1
  Zr  Zr9  1  0.00000000  0.50000000  0.89229000  1
  Zr  Zr10  1  0.50000000  0.89229000  0.50000000  1
  Zr  Zr11  1  0.50000000  0.10771000  0.50000000  1
  H  H12  1  0.09920000  0.39320000  0.25090000  1
  H  H13  1  0.22660000  0.33460000  0.12520000  1
  H  H14  1  0.15930000  0.33550000  0.31710000  1
  H  H15  1  0.09920000  0.60680000  0.74910000  1
  H  H16  1  0.22660000  0.66540000  0.87480000  1
  H  H17  1  0.15930000  0.66450000  0.68290000  1
  H  H18  1  0.02390000  0.90050000  0.89730000  1
  H  H19  1  0.59920000  0.74910000  0.39320000  1
  H  H20  1  0.72660000  0.87480000  0.33460000  1
  H  H21  1  0.65930000  0.68290000  0.33550000  1
  H  H22  1  0.52390000  0.89730000  0.09950000  1
  H  H23  1  0.59920000  0.25090000  0.60680000  1
  H  H24  1  0.72660000  0.12520000  0.66540000  1
  H  H25  1  0.65930000  0.31710000  0.66450000  1
  H  H26  1  0.90080000  0.60680000  0.25090000  1
  H  H27  1  0.77340000  0.66540000  0.12520000  1
  H  H28  1  0.70490000  0.71470000  0.19330000  1
  H  H29  1  0.90080000  0.39320000  0.74910000  1
  H  H30  1  0.77340000  0.33460000  0.87480000  1
  H  H31  1  0.70490000  0.28530000  0.80670000  1
  H  H32  1  0.40080000  0.25090000  0.39320000  1
  H  H33  1  0.27340000  0.12520000  0.33460000  1
  H  H34  1  0.20490000  0.19330000  0.28530000  1
  H  H35  1  0.40080000  0.74910000  0.60680000  1
  H  H36  1  0.27340000  0.87480000  0.66540000  1
  H  H37  1  0.20490000  0.80670000  0.71470000  1
  H  H38  1  0.90080000  0.60680000  0.74910000  1
  H  H39  1  0.77340000  0.66540000  0.87480000  1
  H  H40  1  0.84070000  0.66450000  0.68290000  1
  H  H41  1  0.97610000  0.90050000  0.89730000  1
  H  H42  1  0.90080000  0.39320000  0.25090000  1
  H  H43  1  0.77340000  0.33460000  0.12520000  1
  H  H44  1  0.84070000  0.33550000  0.31710000  1
  H  H45  1  0.40080000  0.25090000  0.60680000  1
  H  H46  1  0.27340000  0.12520000  0.66540000  1
  H  H47  1  0.34070000  0.31710000  0.66450000  1
  H  H48  1  0.40080000  0.74910000  0.39320000  1
  H  H49  1  0.27340000  0.87480000  0.33460000  1
  H  H50  1  0.34070000  0.68290000  0.33550000  1
  H  H51  1  0.47610000  0.89730000  0.09950000  1
  H  H52  1  0.09920000  0.39320000  0.74910000  1
  H  H53  1  0.22660000  0.33460000  0.87480000  1
  H  H54  1  0.29510000  0.28530000  0.80670000  1
  H  H55  1  0.09920000  0.60680000  0.25090000  1
  H  H56  1  0.22660000  0.66540000  0.12520000  1
  H  H57  1  0.29510000  0.71470000  0.19330000  1
  H  H58  1  0.59920000  0.74910000  0.60680000  1
  H  H59  1  0.72660000  0.87480000  0.66540000  1
  H  H60  1  0.79510000  0.80670000  0.71470000  1
  H  H61  1  0.59920000  0.25090000  0.39320000  1
  H  H62  1  0.72660000  0.12520000  0.33460000  1
  H  H63  1  0.79510000  0.19330000  0.28530000  1
  H  H64  1  0.32430000  0.41200000  0.00000000  1
  H  H65  1  0.10740000  0.23580000  0.00000000  1
  H  H66  1  0.10740000  0.13390000  0.00000000  1
  H  H67  1  0.43690000  0.36220000  0.00000000  1
  H  H68  1  0.50690000  0.39520000  0.00000000  1
  H  H69  1  0.32430000  0.58800000  0.00000000  1
  H  H70  1  0.10740000  0.76420000  0.00000000  1
  H  H71  1  0.10740000  0.86610000  0.00000000  1
  H  H72  1  0.44840000  0.58790000  0.00000000  1
  H  H73  1  0.82430000  1.00000000  0.41200000  1
  H  H74  1  0.60740000  0.00000000  0.23580000  1
  H  H75  1  0.60740000  0.00000000  0.13390000  1
  H  H76  1  0.94840000  0.00000000  0.41210000  1
  H  H77  1  0.82430000  0.00000000  0.58800000  1
  H  H78  1  0.60740000  0.00000000  0.76420000  1
  H  H79  1  0.60740000  1.00000000  0.86610000  1
  H  H80  1  0.93690000  0.00000000  0.63780000  1
  H  H81  1  0.00690000  0.00000000  0.60480000  1
  H  H82  1  0.67570000  0.58800000  0.00000000  1
  H  H83  1  0.89260000  0.76420000  0.00000000  1
  H  H84  1  0.89260000  0.86610000  0.00000000  1
  H  H85  1  0.55160000  0.58790000  0.00000000  1
  H  H86  1  0.67570000  0.41200000  0.00000000  1
  H  H87  1  0.89260000  0.23580000  0.00000000  1
  H  H88  1  0.89260000  0.13390000  0.00000000  1
  H  H89  1  0.55160000  0.41210000  0.00000000  1
  H  H90  1  0.17570000  1.00000000  0.41200000  1
  H  H91  1  0.39260000  0.00000000  0.23580000  1
  H  H92  1  0.39260000  0.00000000  0.13390000  1
  H  H93  1  0.05160000  0.00000000  0.41210000  1
  H  H94  1  0.17570000  0.00000000  0.58800000  1
  H  H95  1  0.39260000  0.00000000  0.76420000  1
  H  H96  1  0.39260000  1.00000000  0.86610000  1
  H  H97  1  0.05160000  1.00000000  0.58790000  1
  H  H98  1  0.00000000  0.05080000  0.08790000  1
  H  H99  1  0.50000000  0.08790000  0.94920000  1
  H  H100  1  0.00000000  0.94920000  0.08790000  1
  H  H101  1  0.00000000  0.05080000  0.91210000  1
  H  H102  1  0.50000000  0.08790000  0.05080000  1
  H  H103  1  0.50000000  0.91210000  0.94920000  1
  C  C104  1  0.23100000  0.30200000  0.26110000  1
  C  C105  1  0.17380000  0.33570000  0.27770000  1
  C  C106  1  0.13760000  0.36970000  0.23840000  1
  C  C107  1  0.15730000  0.36930000  0.18150000  1
  C  C108  1  0.21390000  0.33610000  0.16500000  1
  C  C109  1  0.25310000  0.30470000  0.20490000  1
  C  C110  1  0.11710000  0.40370000  0.13730000  1
  C  C111  1  0.32250000  0.28280000  0.18150000  1
  C  C112  1  0.23100000  0.69800000  0.73890000  1
  C  C113  1  0.17380000  0.66430000  0.72230000  1
  C  C114  1  0.13760000  0.63030000  0.76160000  1
  C  C115  1  0.15730000  0.63070000  0.81850000  1
  C  C116  1  0.21390000  0.66390000  0.83500000  1
  C  C117  1  0.25310000  0.69530000  0.79510000  1
  C  C118  1  0.11710000  0.59630000  0.86270000  1
  C  C119  1  0.32250000  0.71720000  0.81850000  1
  C  C120  1  0.73100000  0.73890000  0.30200000  1
  C  C121  1  0.67380000  0.72230000  0.33570000  1
  C  C122  1  0.63760000  0.76160000  0.36970000  1
  C  C123  1  0.65730000  0.81850000  0.36930000  1
  C  C124  1  0.71390000  0.83500000  0.33610000  1
  C  C125  1  0.75310000  0.79510000  0.30470000  1
  C  C126  1  0.61710000  0.86270000  0.40370000  1
  C  C127  1  0.82250000  0.81850000  0.28280000  1
  C  C128  1  0.73100000  0.26110000  0.69800000  1
  C  C129  1  0.67380000  0.27770000  0.66430000  1
  C  C130  1  0.63760000  0.23840000  0.63030000  1
  C  C131  1  0.65730000  0.18150000  0.63070000  1
  C  C132  1  0.71390000  0.16500000  0.66390000  1
  C  C133  1  0.75310000  0.20490000  0.69530000  1
  C  C134  1  0.61710000  0.13730000  0.59630000  1
  C  C135  1  0.82250000  0.18150000  0.71720000  1
  C  C136  1  0.76900000  0.69800000  0.26110000  1
  C  C137  1  0.82620000  0.66430000  0.27770000  1
  C  C138  1  0.86240000  0.63030000  0.23840000  1
  C  C139  1  0.84270000  0.63070000  0.18150000  1
  C  C140  1  0.78610000  0.66390000  0.16500000  1
  C  C141  1  0.74690000  0.69530000  0.20490000  1
  C  C142  1  0.88290000  0.59630000  0.13730000  1
  C  C143  1  0.85970000  0.66800000  0.33670000  1
  C  C144  1  0.76900000  0.30200000  0.73890000  1
  C  C145  1  0.82620000  0.33570000  0.72230000  1
  C  C146  1  0.86240000  0.36970000  0.76160000  1
  C  C147  1  0.84270000  0.36930000  0.81850000  1
  C  C148  1  0.78610000  0.33610000  0.83500000  1
  C  C149  1  0.74690000  0.30470000  0.79510000  1
  C  C150  1  0.88290000  0.40370000  0.86270000  1
  C  C151  1  0.85970000  0.33200000  0.66330000  1
  C  C152  1  0.26900000  0.26110000  0.30200000  1
  C  C153  1  0.32620000  0.27770000  0.33570000  1
  C  C154  1  0.36240000  0.23840000  0.36970000  1
  C  C155  1  0.34270000  0.18150000  0.36930000  1
  C  C156  1  0.28610000  0.16500000  0.33610000  1
  C  C157  1  0.24690000  0.20490000  0.30470000  1
  C  C158  1  0.38290000  0.13730000  0.40370000  1
  C  C159  1  0.35970000  0.33670000  0.33200000  1
  C  C160  1  0.26900000  0.73890000  0.69800000  1
  C  C161  1  0.32620000  0.72230000  0.66430000  1
  C  C162  1  0.36240000  0.76160000  0.63030000  1
  C  C163  1  0.34270000  0.81850000  0.63070000  1
  C  C164  1  0.28610000  0.83500000  0.66390000  1
  C  C165  1  0.24690000  0.79510000  0.69530000  1
  C  C166  1  0.38290000  0.86270000  0.59630000  1
  C  C167  1  0.35970000  0.66330000  0.66800000  1
  C  C168  1  0.76900000  0.69800000  0.73890000  1
  C  C169  1  0.82620000  0.66430000  0.72230000  1
  C  C170  1  0.86240000  0.63030000  0.76160000  1
  C  C171  1  0.84270000  0.63070000  0.81850000  1
  C  C172  1  0.78610000  0.66390000  0.83500000  1
  C  C173  1  0.74690000  0.69530000  0.79510000  1
  C  C174  1  0.88290000  0.59630000  0.86270000  1
  C  C175  1  0.67750000  0.71720000  0.81850000  1
  C  C176  1  0.76900000  0.30200000  0.26110000  1
  C  C177  1  0.82620000  0.33570000  0.27770000  1
  C  C178  1  0.86240000  0.36970000  0.23840000  1
  C  C179  1  0.84270000  0.36930000  0.18150000  1
  C  C180  1  0.78610000  0.33610000  0.16500000  1
  C  C181  1  0.74690000  0.30470000  0.20490000  1
  C  C182  1  0.88290000  0.40370000  0.13730000  1
  C  C183  1  0.67750000  0.28280000  0.18150000  1
  C  C184  1  0.26900000  0.26110000  0.69800000  1
  C  C185  1  0.32620000  0.27770000  0.66430000  1
  C  C186  1  0.36240000  0.23840000  0.63030000  1
  C  C187  1  0.34270000  0.18150000  0.63070000  1
  C  C188  1  0.28610000  0.16500000  0.66390000  1
  C  C189  1  0.24690000  0.20490000  0.69530000  1
  C  C190  1  0.38290000  0.13730000  0.59630000  1
  C  C191  1  0.17750000  0.18150000  0.71720000  1
  C  C192  1  0.26900000  0.73890000  0.30200000  1
  C  C193  1  0.32620000  0.72230000  0.33570000  1
  C  C194  1  0.36240000  0.76160000  0.36970000  1
  C  C195  1  0.34270000  0.81850000  0.36930000  1
  C  C196  1  0.28610000  0.83500000  0.33610000  1
  C  C197  1  0.24690000  0.79510000  0.30470000  1
  C  C198  1  0.38290000  0.86270000  0.40370000  1
  C  C199  1  0.17750000  0.81850000  0.28280000  1
  C  C200  1  0.23100000  0.30200000  0.73890000  1
  C  C201  1  0.17380000  0.33570000  0.72230000  1
  C  C202  1  0.13760000  0.36970000  0.76160000  1
  C  C203  1  0.15730000  0.36930000  0.81850000  1
  C  C204  1  0.21390000  0.33610000  0.83500000  1
  C  C205  1  0.25310000  0.30470000  0.79510000  1
  C  C206  1  0.11710000  0.40370000  0.86270000  1
  C  C207  1  0.14030000  0.33200000  0.66330000  1
  C  C208  1  0.23100000  0.69800000  0.26110000  1
  C  C209  1  0.17380000  0.66430000  0.27770000  1
  C  C210  1  0.13760000  0.63030000  0.23840000  1
  C  C211  1  0.15730000  0.63070000  0.18150000  1
  C  C212  1  0.21390000  0.66390000  0.16500000  1
  C  C213  1  0.25310000  0.69530000  0.20490000  1
  C  C214  1  0.11710000  0.59630000  0.13730000  1
  C  C215  1  0.14030000  0.66800000  0.33670000  1
  C  C216  1  0.73100000  0.73890000  0.69800000  1
  C  C217  1  0.67380000  0.72230000  0.66430000  1
  C  C218  1  0.63760000  0.76160000  0.63030000  1
  C  C219  1  0.65730000  0.81850000  0.63070000  1
  C  C220  1  0.71390000  0.83500000  0.66390000  1
  C  C221  1  0.75310000  0.79510000  0.69530000  1
  C  C222  1  0.61710000  0.86270000  0.59630000  1
  C  C223  1  0.64030000  0.66330000  0.66800000  1
  C  C224  1  0.73100000  0.26110000  0.30200000  1
  C  C225  1  0.67380000  0.27770000  0.33570000  1
  C  C226  1  0.63760000  0.23840000  0.36970000  1
  C  C227  1  0.65730000  0.18150000  0.36930000  1
  C  C228  1  0.71390000  0.16500000  0.33610000  1
  C  C229  1  0.75310000  0.20490000  0.30470000  1
  C  C230  1  0.61710000  0.13730000  0.40370000  1
  C  C231  1  0.64030000  0.33670000  0.33200000  1
  C  C232  1  0.34950000  0.44760000  0.00000000  1
  C  C233  1  0.42330000  0.44775000  0.00000000  1
  C  C234  1  0.06380000  0.21510000  0.00000000  1
  C  C235  1  0.06380000  0.15460000  0.00000000  1
  C  C236  1  0.34950000  0.55240000  0.00000000  1
  C  C237  1  0.42330000  0.55225000  0.00000000  1
  C  C238  1  0.06380000  0.78490000  0.00000000  1
  C  C239  1  0.06380000  0.84540000  0.00000000  1
  C  C240  1  0.84950000  0.00000000  0.44760000  1
  C  C241  1  0.92330000  0.00000000  0.44775000  1
  C  C242  1  0.56380000  1.00000000  0.21510000  1
  C  C243  1  0.56380000  0.00000000  0.15460000  1
  C  C244  1  0.84950000  1.00000000  0.55240000  1
  C  C245  1  0.92330000  0.00000000  0.55225000  1
  C  C246  1  0.56380000  1.00000000  0.78490000  1
  C  C247  1  0.56380000  1.00000000  0.84540000  1
  C  C248  1  0.65050000  0.55240000  0.00000000  1
  C  C249  1  0.57670000  0.55225000  0.00000000  1
  C  C250  1  0.93620000  0.78490000  0.00000000  1
  C  C251  1  0.93620000  0.84540000  0.00000000  1
  C  C252  1  0.65050000  0.44760000  0.00000000  1
  C  C253  1  0.57670000  0.44775000  0.00000000  1
  C  C254  1  0.93620000  0.21510000  0.00000000  1
  C  C255  1  0.93620000  0.15460000  0.00000000  1
  C  C256  1  0.15050000  0.00000000  0.44760000  1
  C  C257  1  0.07670000  0.00000000  0.44775000  1
  C  C258  1  0.43620000  1.00000000  0.21510000  1
  C  C259  1  0.43620000  0.00000000  0.15460000  1
  C  C260  1  0.15050000  1.00000000  0.55240000  1
  C  C261  1  0.07670000  0.00000000  0.55225000  1
  C  C262  1  0.43620000  1.00000000  0.78490000  1
  C  C263  1  0.43620000  1.00000000  0.84540000  1
  C  C264  1  1.00000000  0.03018000  0.05225000  1
  C  C265  1  0.00000000  0.96982000  0.94775000  1
  C  C266  1  0.00000000  0.93810000  0.89080000  1
  C  C267  1  0.50000000  0.94775000  0.03018000  1
  C  C268  1  0.50000000  0.89080000  0.06190000  1
  C  C269  1  0.50000000  0.05225000  0.96982000  1
  C  C270  1  1.00000000  0.96982000  0.05225000  1
  C  C271  1  0.00000000  0.03018000  0.94775000  1
  C  C272  1  0.50000000  0.05225000  0.03018000  1
  C  C273  1  0.50000000  0.94775000  0.96982000  1
  C  C274  1  0.23500000  0.50000000  0.00000000  1
  C  C275  1  0.31280000  0.50000000  0.00000000  1
  C  C276  1  0.46050000  0.50000000  0.00000000  1
  C  C277  1  0.73500000  0.00000000  0.50000000  1
  C  C278  1  0.81280000  0.00000000  0.50000000  1
  C  C279  1  0.96050000  0.00000000  0.50000000  1
  C  C280  1  0.76500000  0.50000000  0.00000000  1
  C  C281  1  0.68720000  0.50000000  0.00000000  1
  C  C282  1  0.53950000  0.50000000  0.00000000  1
  C  C283  1  0.26500000  0.00000000  0.50000000  1
  C  C284  1  0.18720000  0.00000000  0.50000000  1
  C  C285  1  0.03950000  0.00000000  0.50000000  1
  C  C286  1  0.00000000  0.30950000  0.00000000  1
  C  C287  1  1.00000000  0.24510000  0.00000000  1
  C  C288  1  1.00000000  0.12480000  0.00000000  1
  C  C289  1  0.00000000  0.06038000  0.00000000  1
  C  C290  1  1.00000000  0.69050000  0.00000000  1
  C  C291  1  1.00000000  0.75490000  0.00000000  1
  C  C292  1  1.00000000  0.87520000  0.00000000  1
  C  C293  1  0.00000000  0.93962000  0.00000000  1
  C  C294  1  0.50000000  0.00000000  0.30950000  1
  C  C295  1  0.50000000  0.00000000  0.24510000  1
  C  C296  1  0.50000000  0.00000000  0.12480000  1
  C  C297  1  0.50000000  0.00000000  0.06038000  1
  C  C298  1  0.50000000  1.00000000  0.69050000  1
  C  C299  1  0.50000000  0.00000000  0.75490000  1
  C  C300  1  0.50000000  0.00000000  0.87520000  1
  C  C301  1  0.50000000  0.00000000  0.93962000  1
  N  N302  1  0.03510000  0.97600000  0.85400000  1
  N  N303  1  0.10170000  0.97300000  0.85500000  1
  N  N304  1  0.16040000  0.97300000  0.85000000  1
  N  N305  1  0.53510000  0.85400000  0.02400000  1
  N  N306  1  0.60170000  0.85500000  0.02700000  1
  N  N307  1  0.66040000  0.85000000  0.02700000  1
  N  N308  1  0.46020000  0.39520000  0.00000000  1
  N  N309  1  0.96020000  0.00000000  0.60480000  1
  O  O310  1  0.13280000  0.39150000  0.08430000  1
  O  O311  1  0.07170000  0.44110000  0.15641000  1
  O  O312  1  0.13280000  0.60850000  0.91570000  1
  O  O313  1  0.07170000  0.55890000  0.84359000  1
  O  O314  1  0.63280000  0.91570000  0.39150000  1
  O  O315  1  0.57170000  0.84359000  0.44110000  1
  O  O316  1  0.63280000  0.08430000  0.60850000  1
  O  O317  1  0.57170000  0.15641000  0.55890000  1
  O  O318  1  0.86720000  0.60850000  0.08430000  1
  O  O319  1  0.92830000  0.55890000  0.15641000  1
  O  O320  1  0.86720000  0.39150000  0.91570000  1
  O  O321  1  0.92830000  0.44110000  0.84359000  1
  O  O322  1  0.36720000  0.08430000  0.39150000  1
  O  O323  1  0.42830000  0.15641000  0.44110000  1
  O  O324  1  0.36720000  0.91570000  0.60850000  1
  O  O325  1  0.42830000  0.84359000  0.55890000  1
  O  O326  1  0.86720000  0.60850000  0.91570000  1
  O  O327  1  0.92830000  0.55890000  0.84359000  1
  O  O328  1  0.86720000  0.39150000  0.08430000  1
  O  O329  1  0.92830000  0.44110000  0.15641000  1
  O  O330  1  0.36720000  0.08430000  0.60850000  1
  O  O331  1  0.42830000  0.15641000  0.55890000  1
  O  O332  1  0.36720000  0.91570000  0.39150000  1
  O  O333  1  0.42830000  0.84359000  0.44110000  1
  O  O334  1  0.13280000  0.39150000  0.91570000  1
  O  O335  1  0.07170000  0.44110000  0.84359000  1
  O  O336  1  0.13280000  0.60850000  0.08430000  1
  O  O337  1  0.07170000  0.55890000  0.15641000  1
  O  O338  1  0.63280000  0.91570000  0.60850000  1
  O  O339  1  0.57170000  0.84359000  0.55890000  1
  O  O340  1  0.63280000  0.08430000  0.39150000  1
  O  O341  1  0.57170000  0.15641000  0.44110000  1
  O  O342  1  0.20620000  0.44390000  0.00000000  1
  O  O343  1  0.06150000  0.33220000  0.00000000  1
  O  O344  1  0.20620000  0.55610000  0.00000000  1
  O  O345  1  0.06150000  0.66780000  0.00000000  1
  O  O346  1  0.70620000  1.00000000  0.44390000  1
  O  O347  1  0.56150000  1.00000000  0.33220000  1
  O  O348  1  0.70620000  0.00000000  0.55610000  1
  O  O349  1  0.56150000  0.00000000  0.66780000  1
  O  O350  1  0.79380000  0.55610000  0.00000000  1
  O  O351  1  0.93850000  0.66780000  0.00000000  1
  O  O352  1  0.79380000  0.44390000  0.00000000  1
  O  O353  1  0.93850000  0.33220000  0.00000000  1
  O  O354  1  0.29380000  1.00000000  0.44390000  1
  O  O355  1  0.43850000  1.00000000  0.33220000  1
  O  O356  1  0.29380000  0.00000000  0.55610000  1
  O  O357  1  0.43850000  0.00000000  0.66780000  1
  O  O358  1  1.00000000  0.42500000  0.05340000  1
  O  O359  1  0.00000000  0.57500000  0.94660000  1
  O  O360  1  0.50000000  0.94660000  0.42500000  1
  O  O361  1  0.50000000  0.05340000  0.57500000  1
  O  O362  1  1.00000000  0.57500000  0.05340000  1
  O  O363  1  0.00000000  0.42500000  0.94660000  1
  O  O364  1  0.50000000  0.05340000  0.42500000  1
  O  O365  1  0.50000000  0.94660000  0.57500000  1
  O  O366  1  0.09160000  0.50000000  0.05320000  1
  O  O367  1  0.09160000  0.50000000  0.94680000  1
  O  O368  1  0.59160000  0.94680000  0.50000000  1
  O  O369  1  0.59160000  0.05320000  0.50000000  1
  O  O370  1  0.90840000  0.50000000  0.05320000  1
  O  O371  1  0.40840000  0.05320000  0.50000000  1
  O  O372  1  0.40840000  0.94680000  0.50000000  1
  O  O373  1  0.90840000  0.50000000  0.94680000  1
  F  F374  1  0.38420000  0.29350000  0.21400000  1
  F  F375  1  0.32870000  0.22240000  0.17320000  1
  F  F376  1  0.34490000  0.30250000  0.12650000  1
  F  F377  1  0.38420000  0.70650000  0.78600000  1
  F  F378  1  0.32870000  0.77760000  0.82680000  1
  F  F379  1  0.34490000  0.69750000  0.87350000  1
  F  F380  1  0.88420000  0.78600000  0.29350000  1
  F  F381  1  0.82870000  0.82680000  0.22240000  1
  F  F382  1  0.84490000  0.87350000  0.30250000  1
  F  F383  1  0.88420000  0.21400000  0.70650000  1
  F  F384  1  0.82870000  0.17320000  0.77760000  1
  F  F385  1  0.84490000  0.12650000  0.69750000  1
  F  F386  1  0.89190000  0.72210000  0.34960000  1
  F  F387  1  0.81270000  0.66200000  0.38340000  1
  F  F388  1  0.91290000  0.62970000  0.35070000  1
  F  F389  1  0.89190000  0.27790000  0.65040000  1
  F  F390  1  0.81270000  0.33800000  0.61660000  1
  F  F391  1  0.91290000  0.37030000  0.64930000  1
  F  F392  1  0.39190000  0.34960000  0.27790000  1
  F  F393  1  0.31270000  0.38340000  0.33800000  1
  F  F394  1  0.41290000  0.35070000  0.37030000  1
  F  F395  1  0.39190000  0.65040000  0.72210000  1
  F  F396  1  0.31270000  0.61660000  0.66200000  1
  F  F397  1  0.41290000  0.64930000  0.62970000  1
  F  F398  1  0.61580000  0.70650000  0.78600000  1
  F  F399  1  0.67130000  0.77760000  0.82680000  1
  F  F400  1  0.65510000  0.69750000  0.87350000  1
  F  F401  1  0.61580000  0.29350000  0.21400000  1
  F  F402  1  0.67130000  0.22240000  0.17320000  1
  F  F403  1  0.65510000  0.30250000  0.12650000  1
  F  F404  1  0.11580000  0.21400000  0.70650000  1
  F  F405  1  0.17130000  0.17320000  0.77760000  1
  F  F406  1  0.15510000  0.12650000  0.69750000  1
  F  F407  1  0.11580000  0.78600000  0.29350000  1
  F  F408  1  0.17130000  0.82680000  0.22240000  1
  F  F409  1  0.15510000  0.87350000  0.30250000  1
  F  F410  1  0.10810000  0.27790000  0.65040000  1
  F  F411  1  0.18730000  0.33800000  0.61660000  1
  F  F412  1  0.08710000  0.37030000  0.64930000  1
  F  F413  1  0.10810000  0.72210000  0.34960000  1
  F  F414  1  0.18730000  0.66200000  0.38340000  1
  F  F415  1  0.08710000  0.62970000  0.35070000  1
  F  F416  1  0.60810000  0.65040000  0.72210000  1
  F  F417  1  0.68730000  0.61660000  0.66200000  1
  F  F418  1  0.58710000  0.64930000  0.62970000  1
  F  F419  1  0.60810000  0.34960000  0.27790000  1
  F  F420  1  0.68730000  0.38340000  0.33800000  1
  F  F421  1  0.58710000  0.35070000  0.37030000  1
