# generated using pymatgen
data_Zr6H44C97N2(O11F8)3
_symmetry_space_group_name_H-M   'P 1'
_cell_length_a   18.74590000
_cell_length_b   23.12710000
_cell_length_c   23.12710000
_cell_angle_alpha   90.00000000
_cell_angle_beta   90.00000000
_cell_angle_gamma   90.00000000
_symmetry_Int_Tables_number   1
_chemical_formula_structural   Zr6H44C97N2(O11F8)3
_chemical_formula_sum   'Zr12 H88 C194 N4 O66 F48'
_cell_volume   10026.48370789
_cell_formula_units_Z   2
loop_
 _symmetry_equiv_pos_site_id
 _symmetry_equiv_pos_as_xyz
  1  'x, y, z'
loop_
 _atom_site_type_symbol
 _atom_site_label
 _atom_site_symmetry_multiplicity
 _atom_site_fract_x
 _atom_site_fract_y
 _atom_site_fract_z
 _atom_site_occupancy
  Zr  Zr0  1  0.09318000  0.42459000  0.00000000  1
  Zr  Zr1  1  0.09318000  0.57541000  0.00000000  1
  Zr  Zr2  1  0.59318000  1.00000000  0.42459000  1
  Zr  Zr3  1  0.59318000  1.00000000  0.57541000  1
  Zr  Zr4  1  0.90682000  0.57541000  0.00000000  1
  Zr  Zr5  1  0.90682000  0.42459000  0.00000000  1
  Zr  Zr6  1  0.40682000  1.00000000  0.42459000  1
  Zr  Zr7  1  0.40682000  1.00000000  0.57541000  1
  Zr  Zr8  1  0.00000000  0.50000000  0.10777000  1
  Zr  Zr9  1  0.00000000  0.50000000  0.89223000  1
  Zr  Zr10  1  0.50000000  0.89223000  0.50000000  1
  Zr  Zr11  1  0.50000000  0.10777000  0.50000000  1
  H  H12  1  0.09500000  0.39030000  0.24850000  1
  H  H13  1  0.23070000  0.33550000  0.12260000  1
  H  H14  1  0.15870000  0.33390000  0.31520000  1
  H  H15  1  0.09500000  0.60970000  0.75150000  1
  H  H16  1  0.23070000  0.66450000  0.87740000  1
  H  H17  1  0.12650000  0.95350000  0.90880000  1
  H  H18  1  0.07630000  0.89790000  0.91550000  1
  H  H19  1  0.15870000  0.66610000  0.68480000  1
  H  H20  1  0.00980000  0.97360000  0.85790000  1
  H  H21  1  0.59500000  0.75150000  0.39030000  1
  H  H22  1  0.73070000  0.87740000  0.33550000  1
  H  H23  1  0.65870000  0.68480000  0.33390000  1
  H  H24  1  0.59500000  0.24850000  0.60970000  1
  H  H25  1  0.73070000  0.12260000  0.66450000  1
  H  H26  1  0.65870000  0.31520000  0.66610000  1
  H  H27  1  0.56080000  0.07250000  0.94920000  1
  H  H28  1  0.90500000  0.60970000  0.24850000  1
  H  H29  1  0.76930000  0.66450000  0.12260000  1
  H  H30  1  0.70710000  0.71970000  0.19370000  1
  H  H31  1  0.93920000  0.94920000  0.07250000  1
  H  H32  1  0.90500000  0.39030000  0.75150000  1
  H  H33  1  0.76930000  0.33550000  0.87740000  1
  H  H34  1  0.70710000  0.28030000  0.80630000  1
  H  H35  1  0.40500000  0.24850000  0.39030000  1
  H  H36  1  0.26930000  0.12260000  0.33550000  1
  H  H37  1  0.20710000  0.19370000  0.28030000  1
  H  H38  1  0.40500000  0.75150000  0.60970000  1
  H  H39  1  0.26930000  0.87740000  0.66450000  1
  H  H40  1  0.20710000  0.80630000  0.71970000  1
  H  H41  1  0.43920000  0.92750000  0.94920000  1
  H  H42  1  0.90500000  0.60970000  0.75150000  1
  H  H43  1  0.76930000  0.66450000  0.87740000  1
  H  H44  1  0.84130000  0.66610000  0.68480000  1
  H  H45  1  0.90500000  0.39030000  0.24850000  1
  H  H46  1  0.76930000  0.33550000  0.12260000  1
  H  H47  1  0.84130000  0.33390000  0.31520000  1
  H  H48  1  0.93920000  0.05080000  0.07250000  1
  H  H49  1  0.40500000  0.24850000  0.60970000  1
  H  H50  1  0.26930000  0.12260000  0.66450000  1
  H  H51  1  0.34130000  0.31520000  0.66610000  1
  H  H52  1  0.40500000  0.75150000  0.39030000  1
  H  H53  1  0.26930000  0.87740000  0.33550000  1
  H  H54  1  0.37350000  0.90880000  0.04650000  1
  H  H55  1  0.42370000  0.91550000  0.10210000  1
  H  H56  1  0.34130000  0.68480000  0.33390000  1
  H  H57  1  0.49020000  0.85790000  0.02640000  1
  H  H58  1  0.09500000  0.39030000  0.75150000  1
  H  H59  1  0.23070000  0.33550000  0.87740000  1
  H  H60  1  0.29290000  0.28030000  0.80630000  1
  H  H61  1  0.06080000  0.05080000  0.92750000  1
  H  H62  1  0.09500000  0.60970000  0.24850000  1
  H  H63  1  0.23070000  0.66450000  0.12260000  1
  H  H64  1  0.29290000  0.71970000  0.19370000  1
  H  H65  1  0.59500000  0.75150000  0.60970000  1
  H  H66  1  0.73070000  0.87740000  0.66450000  1
  H  H67  1  0.79290000  0.80630000  0.71970000  1
  H  H68  1  0.59500000  0.24850000  0.39030000  1
  H  H69  1  0.73070000  0.12260000  0.33550000  1
  H  H70  1  0.79290000  0.19370000  0.28030000  1
  H  H71  1  0.56080000  0.07250000  0.05080000  1
  H  H72  1  0.32490000  0.41220000  0.00000000  1
  H  H73  1  0.10810000  0.23630000  0.00000000  1
  H  H74  1  0.10830000  0.13480000  0.00000000  1
  H  H75  1  0.45010000  0.41240000  0.00000000  1
  H  H76  1  0.32490000  0.58780000  0.00000000  1
  H  H77  1  0.10810000  0.76370000  0.00000000  1
  H  H78  1  0.10830000  0.86520000  0.00000000  1
  H  H79  1  0.82490000  0.00000000  0.41220000  1
  H  H80  1  0.60810000  0.00000000  0.23630000  1
  H  H81  1  0.60830000  1.00000000  0.13480000  1
  H  H82  1  0.82490000  0.00000000  0.58780000  1
  H  H83  1  0.60810000  1.00000000  0.76370000  1
  H  H84  1  0.60830000  1.00000000  0.86520000  1
  H  H85  1  0.95010000  1.00000000  0.58760000  1
  H  H86  1  0.67510000  0.58780000  0.00000000  1
  H  H87  1  0.89190000  0.76370000  0.00000000  1
  H  H88  1  0.89170000  0.86520000  0.00000000  1
  H  H89  1  0.67510000  0.41220000  0.00000000  1
  H  H90  1  0.89190000  0.23630000  0.00000000  1
  H  H91  1  0.89170000  0.13480000  0.00000000  1
  H  H92  1  0.54990000  0.41240000  0.00000000  1
  H  H93  1  0.17510000  0.00000000  0.41220000  1
  H  H94  1  0.39190000  0.00000000  0.23630000  1
  H  H95  1  0.39170000  1.00000000  0.13480000  1
  H  H96  1  0.17510000  0.00000000  0.58780000  1
  H  H97  1  0.39190000  1.00000000  0.76370000  1
  H  H98  1  0.39170000  1.00000000  0.86520000  1
  H  H99  1  0.04990000  1.00000000  0.58760000  1
  C  C100  1  0.22930000  0.29880000  0.25970000  1
  C  C101  1  0.17270000  0.33350000  0.27570000  1
  C  C102  1  0.13490000  0.36800000  0.23660000  1
  C  C103  1  0.15800000  0.36850000  0.18010000  1
  C  C104  1  0.21570000  0.33550000  0.16180000  1
  C  C105  1  0.25170000  0.30160000  0.20470000  1
  C  C106  1  0.11890000  0.40270000  0.13560000  1
  C  C107  1  0.31970000  0.27500000  0.18330000  1
  C  C108  1  0.22930000  0.70120000  0.74030000  1
  C  C109  1  0.17270000  0.66650000  0.72430000  1
  C  C110  1  0.13490000  0.63200000  0.76340000  1
  C  C111  1  0.15800000  0.63150000  0.81990000  1
  C  C112  1  0.21570000  0.66450000  0.83820000  1
  C  C113  1  0.25170000  0.69840000  0.79530000  1
  C  C114  1  0.11890000  0.59730000  0.86440000  1
  C  C115  1  0.03610000  0.96977000  0.95690000  1
  C  C116  1  0.07630000  0.94020000  0.90870000  1
  C  C117  1  0.31970000  0.72500000  0.81670000  1
  C  C118  1  0.72930000  0.74030000  0.29880000  1
  C  C119  1  0.67270000  0.72430000  0.33350000  1
  C  C120  1  0.63490000  0.76340000  0.36800000  1
  C  C121  1  0.65800000  0.81990000  0.36850000  1
  C  C122  1  0.71570000  0.83820000  0.33550000  1
  C  C123  1  0.75170000  0.79530000  0.30160000  1
  C  C124  1  0.61890000  0.86440000  0.40270000  1
  C  C125  1  0.81970000  0.81670000  0.27500000  1
  C  C126  1  0.72930000  0.25970000  0.70120000  1
  C  C127  1  0.67270000  0.27570000  0.66650000  1
  C  C128  1  0.63490000  0.23660000  0.63200000  1
  C  C129  1  0.65800000  0.18010000  0.63150000  1
  C  C130  1  0.71570000  0.16180000  0.66450000  1
  C  C131  1  0.75170000  0.20470000  0.69840000  1
  C  C132  1  0.61890000  0.13560000  0.59730000  1
  C  C133  1  0.53610000  0.04310000  0.96977000  1
  C  C134  1  0.81970000  0.18330000  0.72500000  1
  C  C135  1  0.77070000  0.70120000  0.25970000  1
  C  C136  1  0.82730000  0.66650000  0.27570000  1
  C  C137  1  0.86510000  0.63200000  0.23660000  1
  C  C138  1  0.84200000  0.63150000  0.18010000  1
  C  C139  1  0.78430000  0.66450000  0.16180000  1
  C  C140  1  0.74830000  0.69840000  0.20470000  1
  C  C141  1  0.88110000  0.59730000  0.13560000  1
  C  C142  1  0.85840000  0.66930000  0.33540000  1
  C  C143  1  0.96390000  0.96977000  0.04310000  1
  C  C144  1  0.77070000  0.29880000  0.74030000  1
  C  C145  1  0.82730000  0.33350000  0.72430000  1
  C  C146  1  0.86510000  0.36800000  0.76340000  1
  C  C147  1  0.84200000  0.36850000  0.81990000  1
  C  C148  1  0.78430000  0.33550000  0.83820000  1
  C  C149  1  0.74830000  0.30160000  0.79530000  1
  C  C150  1  0.88110000  0.40270000  0.86440000  1
  C  C151  1  0.85840000  0.33070000  0.66460000  1
  C  C152  1  0.27070000  0.25970000  0.29880000  1
  C  C153  1  0.32730000  0.27570000  0.33350000  1
  C  C154  1  0.36510000  0.23660000  0.36800000  1
  C  C155  1  0.34200000  0.18010000  0.36850000  1
  C  C156  1  0.28430000  0.16180000  0.33550000  1
  C  C157  1  0.24830000  0.20470000  0.30160000  1
  C  C158  1  0.38110000  0.13560000  0.40270000  1
  C  C159  1  0.35840000  0.33540000  0.33070000  1
  C  C160  1  0.27070000  0.74030000  0.70120000  1
  C  C161  1  0.32730000  0.72430000  0.66650000  1
  C  C162  1  0.36510000  0.76340000  0.63200000  1
  C  C163  1  0.34200000  0.81990000  0.63150000  1
  C  C164  1  0.28430000  0.83820000  0.66450000  1
  C  C165  1  0.24830000  0.79530000  0.69840000  1
  C  C166  1  0.38110000  0.86440000  0.59730000  1
  C  C167  1  0.35840000  0.66460000  0.66930000  1
  C  C168  1  0.46390000  0.95690000  0.96977000  1
  C  C169  1  0.77070000  0.70120000  0.74030000  1
  C  C170  1  0.82730000  0.66650000  0.72430000  1
  C  C171  1  0.86510000  0.63200000  0.76340000  1
  C  C172  1  0.84200000  0.63150000  0.81990000  1
  C  C173  1  0.78430000  0.66450000  0.83820000  1
  C  C174  1  0.74830000  0.69840000  0.79530000  1
  C  C175  1  0.88110000  0.59730000  0.86440000  1
  C  C176  1  0.68030000  0.72500000  0.81670000  1
  C  C177  1  0.77070000  0.29880000  0.25970000  1
  C  C178  1  0.82730000  0.33350000  0.27570000  1
  C  C179  1  0.86510000  0.36800000  0.23660000  1
  C  C180  1  0.84200000  0.36850000  0.18010000  1
  C  C181  1  0.78430000  0.33550000  0.16180000  1
  C  C182  1  0.74830000  0.30160000  0.20470000  1
  C  C183  1  0.88110000  0.40270000  0.13560000  1
  C  C184  1  0.96390000  0.03023000  0.04310000  1
  C  C185  1  0.68030000  0.27500000  0.18330000  1
  C  C186  1  0.27070000  0.25970000  0.70120000  1
  C  C187  1  0.32730000  0.27570000  0.66650000  1
  C  C188  1  0.36510000  0.23660000  0.63200000  1
  C  C189  1  0.34200000  0.18010000  0.63150000  1
  C  C190  1  0.28430000  0.16180000  0.66450000  1
  C  C191  1  0.24830000  0.20470000  0.69840000  1
  C  C192  1  0.38110000  0.13560000  0.59730000  1
  C  C193  1  0.18030000  0.18330000  0.72500000  1
  C  C194  1  0.27070000  0.74030000  0.29880000  1
  C  C195  1  0.32730000  0.72430000  0.33350000  1
  C  C196  1  0.36510000  0.76340000  0.36800000  1
  C  C197  1  0.34200000  0.81990000  0.36850000  1
  C  C198  1  0.28430000  0.83820000  0.33550000  1
  C  C199  1  0.24830000  0.79530000  0.30160000  1
  C  C200  1  0.38110000  0.86440000  0.40270000  1
  C  C201  1  0.46390000  0.95690000  0.03023000  1
  C  C202  1  0.42370000  0.90870000  0.05980000  1
  C  C203  1  0.18030000  0.81670000  0.27500000  1
  C  C204  1  0.22930000  0.29880000  0.74030000  1
  C  C205  1  0.17270000  0.33350000  0.72430000  1
  C  C206  1  0.13490000  0.36800000  0.76340000  1
  C  C207  1  0.15800000  0.36850000  0.81990000  1
  C  C208  1  0.21570000  0.33550000  0.83820000  1
  C  C209  1  0.25170000  0.30160000  0.79530000  1
  C  C210  1  0.11890000  0.40270000  0.86440000  1
  C  C211  1  0.14160000  0.33070000  0.66460000  1
  C  C212  1  0.03610000  0.03023000  0.95690000  1
  C  C213  1  0.22930000  0.70120000  0.25970000  1
  C  C214  1  0.17270000  0.66650000  0.27570000  1
  C  C215  1  0.13490000  0.63200000  0.23660000  1
  C  C216  1  0.15800000  0.63150000  0.18010000  1
  C  C217  1  0.21570000  0.66450000  0.16180000  1
  C  C218  1  0.25170000  0.69840000  0.20470000  1
  C  C219  1  0.11890000  0.59730000  0.13560000  1
  C  C220  1  0.14160000  0.66930000  0.33540000  1
  C  C221  1  0.72930000  0.74030000  0.70120000  1
  C  C222  1  0.67270000  0.72430000  0.66650000  1
  C  C223  1  0.63490000  0.76340000  0.63200000  1
  C  C224  1  0.65800000  0.81990000  0.63150000  1
  C  C225  1  0.71570000  0.83820000  0.66450000  1
  C  C226  1  0.75170000  0.79530000  0.69840000  1
  C  C227  1  0.61890000  0.86440000  0.59730000  1
  C  C228  1  0.64160000  0.66460000  0.66930000  1
  C  C229  1  0.72930000  0.25970000  0.29880000  1
  C  C230  1  0.67270000  0.27570000  0.33350000  1
  C  C231  1  0.63490000  0.23660000  0.36800000  1
  C  C232  1  0.65800000  0.18010000  0.36850000  1
  C  C233  1  0.71570000  0.16180000  0.33550000  1
  C  C234  1  0.75170000  0.20470000  0.30160000  1
  C  C235  1  0.61890000  0.13560000  0.40270000  1
  C  C236  1  0.64160000  0.33540000  0.33070000  1
  C  C237  1  0.53610000  0.04310000  0.03023000  1
  C  C238  1  0.42450000  0.44790000  0.00000000  1
  C  C239  1  0.35030000  0.44780000  0.00000000  1
  C  C240  1  0.06430000  0.21560000  0.00000000  1
  C  C241  1  0.06440000  0.15530000  0.00000000  1
  C  C242  1  0.35030000  0.55220000  0.00000000  1
  C  C243  1  0.06430000  0.78440000  0.00000000  1
  C  C244  1  0.06440000  0.84470000  0.00000000  1
  C  C245  1  0.85030000  1.00000000  0.44780000  1
  C  C246  1  0.56430000  1.00000000  0.21560000  1
  C  C247  1  0.56440000  0.00000000  0.15530000  1
  C  C248  1  0.92450000  0.00000000  0.55210000  1
  C  C249  1  0.85030000  0.00000000  0.55220000  1
  C  C250  1  0.56430000  1.00000000  0.78440000  1
  C  C251  1  0.56440000  0.00000000  0.84470000  1
  C  C252  1  0.64970000  0.55220000  0.00000000  1
  C  C253  1  0.93570000  0.78440000  0.00000000  1
  C  C254  1  0.93560000  0.84470000  0.00000000  1
  C  C255  1  0.57550000  0.44790000  0.00000000  1
  C  C256  1  0.64970000  0.44780000  0.00000000  1
  C  C257  1  0.93570000  0.21560000  0.00000000  1
  C  C258  1  0.93560000  0.15530000  0.00000000  1
  C  C259  1  0.14970000  1.00000000  0.44780000  1
  C  C260  1  0.43570000  1.00000000  0.21560000  1
  C  C261  1  0.43560000  0.00000000  0.15530000  1
  C  C262  1  0.07550000  0.00000000  0.55210000  1
  C  C263  1  0.14970000  0.00000000  0.55220000  1
  C  C264  1  0.43570000  1.00000000  0.78440000  1
  C  C265  1  0.43560000  0.00000000  0.84470000  1
  C  C266  1  0.23430000  0.50000000  0.00000000  1
  C  C267  1  0.31340000  0.50000000  0.00000000  1
  C  C268  1  0.46060000  0.50000000  0.00000000  1
  C  C269  1  0.73430000  0.00000000  0.50000000  1
  C  C270  1  0.81340000  0.00000000  0.50000000  1
  C  C271  1  0.96060000  0.00000000  0.50000000  1
  C  C272  1  0.76570000  0.50000000  0.00000000  1
  C  C273  1  0.68660000  0.50000000  0.00000000  1
  C  C274  1  0.53940000  0.50000000  0.00000000  1
  C  C275  1  0.26570000  0.00000000  0.50000000  1
  C  C276  1  0.18660000  0.00000000  0.50000000  1
  C  C277  1  0.03940000  0.00000000  0.50000000  1
  C  C278  1  0.00000000  0.30940000  0.00000000  1
  C  C279  1  0.00000000  0.24520000  0.00000000  1
  C  C280  1  0.00000000  0.12510000  0.00000000  1
  C  C281  1  0.00000000  0.06027000  0.00000000  1
  C  C282  1  0.00000000  0.69060000  0.00000000  1
  C  C283  1  0.00000000  0.75480000  0.00000000  1
  C  C284  1  0.00000000  0.87490000  0.00000000  1
  C  C285  1  0.00000000  0.93973000  0.00000000  1
  C  C286  1  0.50000000  0.00000000  0.30940000  1
  C  C287  1  0.50000000  0.00000000  0.24520000  1
  C  C288  1  0.50000000  1.00000000  0.12510000  1
  C  C289  1  0.50000000  1.00000000  0.06027000  1
  C  C290  1  0.50000000  1.00000000  0.69060000  1
  C  C291  1  0.50000000  1.00000000  0.75480000  1
  C  C292  1  0.50000000  1.00000000  0.87490000  1
  C  C293  1  0.50000000  0.00000000  0.93973000  1
  N  N294  1  0.42450000  0.55210000  0.00000000  1
  N  N295  1  0.92450000  0.00000000  0.44790000  1
  N  N296  1  0.57550000  0.55210000  0.00000000  1
  N  N297  1  0.07550000  0.00000000  0.44790000  1
  O  O298  1  0.13660000  0.39040000  0.08160000  1
  O  O299  1  0.07210000  0.44150000  0.15680000  1
  O  O300  1  0.13660000  0.60960000  0.91840000  1
  O  O301  1  0.07210000  0.55850000  0.84320000  1
  O  O302  1  0.04540000  0.95190000  0.85370000  1
  O  O303  1  0.63660000  0.91840000  0.39040000  1
  O  O304  1  0.57210000  0.84320000  0.44150000  1
  O  O305  1  0.63660000  0.08160000  0.60960000  1
  O  O306  1  0.57210000  0.15680000  0.55850000  1
  O  O307  1  0.86340000  0.60960000  0.08160000  1
  O  O308  1  0.92790000  0.55850000  0.15680000  1
  O  O309  1  0.86340000  0.39040000  0.91840000  1
  O  O310  1  0.92790000  0.44150000  0.84320000  1
  O  O311  1  0.36340000  0.08160000  0.39040000  1
  O  O312  1  0.42790000  0.15680000  0.44150000  1
  O  O313  1  0.36340000  0.91840000  0.60960000  1
  O  O314  1  0.42790000  0.84320000  0.55850000  1
  O  O315  1  0.86340000  0.60960000  0.91840000  1
  O  O316  1  0.92790000  0.55850000  0.84320000  1
  O  O317  1  0.86340000  0.39040000  0.08160000  1
  O  O318  1  0.92790000  0.44150000  0.15680000  1
  O  O319  1  0.36340000  0.08160000  0.60960000  1
  O  O320  1  0.42790000  0.15680000  0.55850000  1
  O  O321  1  0.36340000  0.91840000  0.39040000  1
  O  O322  1  0.42790000  0.84320000  0.44150000  1
  O  O323  1  0.45460000  0.85370000  0.04810000  1
  O  O324  1  0.13660000  0.39040000  0.91840000  1
  O  O325  1  0.07210000  0.44150000  0.84320000  1
  O  O326  1  0.13660000  0.60960000  0.08160000  1
  O  O327  1  0.07210000  0.55850000  0.15680000  1
  O  O328  1  0.63660000  0.91840000  0.60960000  1
  O  O329  1  0.57210000  0.84320000  0.55850000  1
  O  O330  1  0.63660000  0.08160000  0.39040000  1
  O  O331  1  0.57210000  0.15680000  0.44150000  1
  O  O332  1  0.20640000  0.44980000  0.00000000  1
  O  O333  1  0.06110000  0.33240000  0.00000000  1
  O  O334  1  0.20640000  0.55020000  0.00000000  1
  O  O335  1  0.06110000  0.66760000  0.00000000  1
  O  O336  1  0.70640000  0.00000000  0.44980000  1
  O  O337  1  0.56110000  0.00000000  0.33240000  1
  O  O338  1  0.70640000  1.00000000  0.55020000  1
  O  O339  1  0.56110000  0.00000000  0.66760000  1
  O  O340  1  0.79360000  0.55020000  0.00000000  1
  O  O341  1  0.93890000  0.66760000  0.00000000  1
  O  O342  1  0.79360000  0.44980000  0.00000000  1
  O  O343  1  0.93890000  0.33240000  0.00000000  1
  O  O344  1  0.29360000  0.00000000  0.44980000  1
  O  O345  1  0.43890000  0.00000000  0.33240000  1
  O  O346  1  0.29360000  1.00000000  0.55020000  1
  O  O347  1  0.43890000  0.00000000  0.66760000  1
  O  O348  1  0.00000000  0.42470000  0.05420000  1
  O  O349  1  0.00000000  0.57530000  0.94580000  1
  O  O350  1  0.50000000  0.94580000  0.42470000  1
  O  O351  1  0.50000000  0.05420000  0.57530000  1
  O  O352  1  0.00000000  0.57530000  0.05420000  1
  O  O353  1  0.00000000  0.42470000  0.94580000  1
  O  O354  1  0.50000000  0.05420000  0.42470000  1
  O  O355  1  0.50000000  0.94580000  0.57530000  1
  O  O356  1  0.09110000  0.50000000  0.05380000  1
  O  O357  1  0.09110000  0.50000000  0.94620000  1
  O  O358  1  0.59110000  0.94620000  0.50000000  1
  O  O359  1  0.59110000  0.05380000  0.50000000  1
  O  O360  1  0.90890000  0.50000000  0.05380000  1
  O  O361  1  0.40890000  0.05380000  0.50000000  1
  O  O362  1  0.40890000  0.94620000  0.50000000  1
  O  O363  1  0.90890000  0.50000000  0.94620000  1
  F  F364  1  0.38130000  0.28200000  0.21650000  1
  F  F365  1  0.31800000  0.21530000  0.17350000  1
  F  F366  1  0.34430000  0.29430000  0.12860000  1
  F  F367  1  0.38130000  0.71800000  0.78350000  1
  F  F368  1  0.31800000  0.78470000  0.82650000  1
  F  F369  1  0.34430000  0.70570000  0.87140000  1
  F  F370  1  0.88130000  0.78350000  0.28200000  1
  F  F371  1  0.81800000  0.82650000  0.21530000  1
  F  F372  1  0.84430000  0.87140000  0.29430000  1
  F  F373  1  0.88130000  0.21650000  0.71800000  1
  F  F374  1  0.81800000  0.17350000  0.78470000  1
  F  F375  1  0.84430000  0.12860000  0.70570000  1
  F  F376  1  0.91190000  0.62920000  0.34830000  1
  F  F377  1  0.81200000  0.66060000  0.38140000  1
  F  F378  1  0.89190000  0.72170000  0.35010000  1
  F  F379  1  0.91190000  0.37080000  0.65170000  1
  F  F380  1  0.81200000  0.33940000  0.61860000  1
  F  F381  1  0.89190000  0.27830000  0.64990000  1
  F  F382  1  0.41190000  0.34830000  0.37080000  1
  F  F383  1  0.31200000  0.38140000  0.33940000  1
  F  F384  1  0.39190000  0.35010000  0.27830000  1
  F  F385  1  0.41190000  0.65170000  0.62920000  1
  F  F386  1  0.31200000  0.61860000  0.66060000  1
  F  F387  1  0.39190000  0.64990000  0.72170000  1
  F  F388  1  0.61870000  0.71800000  0.78350000  1
  F  F389  1  0.68200000  0.78470000  0.82650000  1
  F  F390  1  0.65570000  0.70570000  0.87140000  1
  F  F391  1  0.61870000  0.28200000  0.21650000  1
  F  F392  1  0.68200000  0.21530000  0.17350000  1
  F  F393  1  0.65570000  0.29430000  0.12860000  1
  F  F394  1  0.11870000  0.21650000  0.71800000  1
  F  F395  1  0.18200000  0.17350000  0.78470000  1
  F  F396  1  0.15570000  0.12860000  0.70570000  1
  F  F397  1  0.11870000  0.78350000  0.28200000  1
  F  F398  1  0.18200000  0.82650000  0.21530000  1
  F  F399  1  0.15570000  0.87140000  0.29430000  1
  F  F400  1  0.08810000  0.37080000  0.65170000  1
  F  F401  1  0.18800000  0.33940000  0.61860000  1
  F  F402  1  0.10810000  0.27830000  0.64990000  1
  F  F403  1  0.08810000  0.62920000  0.34830000  1
  F  F404  1  0.18800000  0.66060000  0.38140000  1
  F  F405  1  0.10810000  0.72170000  0.35010000  1
  F  F406  1  0.58810000  0.65170000  0.62920000  1
  F  F407  1  0.68800000  0.61860000  0.66060000  1
  F  F408  1  0.60810000  0.64990000  0.72170000  1
  F  F409  1  0.58810000  0.34830000  0.37080000  1
  F  F410  1  0.68800000  0.38140000  0.33940000  1
  F  F411  1  0.60810000  0.35010000  0.27830000  1
