# generated using pymatgen
data_Zr3H21C49O17F13
_symmetry_space_group_name_H-M   'P 1'
_cell_length_a   18.87770000
_cell_length_b   23.09840000
_cell_length_c   23.09840000
_cell_angle_alpha   90.00000000
_cell_angle_beta   90.00000000
_cell_angle_gamma   90.00000000
_symmetry_Int_Tables_number   1
_chemical_formula_structural   Zr3H21C49O17F13
_chemical_formula_sum   'Zr12 H84 C196 O68 F52'
_cell_volume   10071.93410574
_cell_formula_units_Z   4
loop_
 _symmetry_equiv_pos_site_id
 _symmetry_equiv_pos_as_xyz
  1  'x, y, z'
loop_
 _atom_site_type_symbol
 _atom_site_label
 _atom_site_symmetry_multiplicity
 _atom_site_fract_x
 _atom_site_fract_y
 _atom_site_fract_z
 _atom_site_occupancy
  Zr  Zr0  1  0.09222000  0.00000000  0.42477000  1
  Zr  Zr1  1  0.09222000  0.00000000  0.57523000  1
  Zr  Zr2  1  0.59222000  0.57523000  0.00000000  1
  Zr  Zr3  1  0.59222000  0.42477000  0.00000000  1
  Zr  Zr4  1  0.90778000  0.00000000  0.42477000  1
  Zr  Zr5  1  0.90778000  0.00000000  0.57523000  1
  Zr  Zr6  1  0.40778000  0.42477000  0.00000000  1
  Zr  Zr7  1  0.40778000  0.57523000  0.00000000  1
  Zr  Zr8  1  0.00000000  0.10891000  0.50000000  1
  Zr  Zr9  1  1.00000000  0.89109000  0.50000000  1
  Zr  Zr10  1  0.50000000  0.50000000  0.10891000  1
  Zr  Zr11  1  0.50000000  0.50000000  0.89109000  1
  H  H12  1  0.09430000  0.24640000  0.38740000  1
  H  H13  1  0.23590000  0.12360000  0.33880000  1
  H  H14  1  0.29400000  0.19160000  0.28030000  1
  H  H15  1  0.91460000  0.94670000  0.05060000  1
  H  H16  1  0.09430000  0.75360000  0.61260000  1
  H  H17  1  0.23590000  0.87640000  0.66120000  1
  H  H18  1  0.29400000  0.80840000  0.71970000  1
  H  H19  1  0.59430000  0.61260000  0.24640000  1
  H  H20  1  0.73590000  0.66120000  0.12360000  1
  H  H21  1  0.79400000  0.71970000  0.19160000  1
  H  H22  1  0.59430000  0.38740000  0.75360000  1
  H  H23  1  0.73590000  0.33880000  0.87640000  1
  H  H24  1  0.79400000  0.28030000  0.80840000  1
  H  H25  1  0.41460000  0.05060000  0.05330000  1
  H  H26  1  0.90570000  0.75360000  0.38740000  1
  H  H27  1  0.76410000  0.87640000  0.33880000  1
  H  H28  1  0.84800000  0.68580000  0.32840000  1
  H  H29  1  0.90570000  0.24640000  0.61260000  1
  H  H30  1  0.76410000  0.12360000  0.66120000  1
  H  H31  1  0.84800000  0.31420000  0.67160000  1
  H  H32  1  0.40570000  0.38740000  0.24640000  1
  H  H33  1  0.26410000  0.33880000  0.12360000  1
  H  H34  1  0.34800000  0.32840000  0.31420000  1
  H  H35  1  0.40570000  0.61260000  0.75360000  1
  H  H36  1  0.26410000  0.66120000  0.87640000  1
  H  H37  1  0.34800000  0.67160000  0.68580000  1
  H  H38  1  0.90570000  0.75360000  0.61260000  1
  H  H39  1  0.76410000  0.87640000  0.66120000  1
  H  H40  1  0.70600000  0.80840000  0.71970000  1
  H  H41  1  0.08540000  0.05330000  0.94940000  1
  H  H42  1  0.90570000  0.24640000  0.38740000  1
  H  H43  1  0.76410000  0.12360000  0.33880000  1
  H  H44  1  0.70600000  0.19160000  0.28030000  1
  H  H45  1  0.40570000  0.38740000  0.75360000  1
  H  H46  1  0.26410000  0.33880000  0.87640000  1
  H  H47  1  0.20600000  0.28030000  0.80840000  1
  H  H48  1  0.40570000  0.61260000  0.24640000  1
  H  H49  1  0.26410000  0.66120000  0.12360000  1
  H  H50  1  0.20600000  0.71970000  0.19160000  1
  H  H51  1  0.58540000  0.94940000  0.94670000  1
  H  H52  1  0.09430000  0.24640000  0.61260000  1
  H  H53  1  0.23590000  0.12360000  0.66120000  1
  H  H54  1  0.15200000  0.31420000  0.67160000  1
  H  H55  1  0.09430000  0.75360000  0.38740000  1
  H  H56  1  0.23590000  0.87640000  0.33880000  1
  H  H57  1  0.15200000  0.68580000  0.32840000  1
  H  H58  1  0.59430000  0.61260000  0.75360000  1
  H  H59  1  0.73590000  0.66120000  0.87640000  1
  H  H60  1  0.65200000  0.67160000  0.68580000  1
  H  H61  1  0.59430000  0.38740000  0.24640000  1
  H  H62  1  0.73590000  0.33880000  0.12360000  1
  H  H63  1  0.65200000  0.32840000  0.31420000  1
  H  H64  1  0.43530000  1.00000000  0.63050000  1
  H  H65  1  0.32600000  0.00000000  0.58760000  1
  H  H66  1  0.10720000  0.00000000  0.23630000  1
  H  H67  1  0.10750000  0.00000000  0.13500000  1
  H  H68  1  0.32600000  1.00000000  0.41240000  1
  H  H69  1  0.10720000  0.00000000  0.76370000  1
  H  H70  1  0.10750000  0.00000000  0.86500000  1
  H  H71  1  0.45000000  1.00000000  0.41240000  1
  H  H72  1  0.93530000  0.36950000  0.00000000  1
  H  H73  1  0.82600000  0.41240000  0.00000000  1
  H  H74  1  0.60720000  0.76370000  0.00000000  1
  H  H75  1  0.60750000  0.86500000  0.00000000  1
  H  H76  1  0.82600000  0.58760000  0.00000000  1
  H  H77  1  0.60720000  0.23630000  0.00000000  1
  H  H78  1  0.60750000  0.13500000  0.00000000  1
  H  H79  1  0.95000000  0.58760000  0.00000000  1
  H  H80  1  0.67400000  0.00000000  0.58760000  1
  H  H81  1  0.89280000  0.00000000  0.23630000  1
  H  H82  1  0.89250000  0.00000000  0.13500000  1
  H  H83  1  0.55000000  0.00000000  0.58760000  1
  H  H84  1  0.56470000  1.00000000  0.36950000  1
  H  H85  1  0.67400000  1.00000000  0.41240000  1
  H  H86  1  0.89280000  0.00000000  0.76370000  1
  H  H87  1  0.89250000  0.00000000  0.86500000  1
  H  H88  1  0.06470000  0.63050000  0.00000000  1
  H  H89  1  0.17400000  0.58760000  0.00000000  1
  H  H90  1  0.39280000  0.23630000  0.00000000  1
  H  H91  1  0.39250000  0.13500000  0.00000000  1
  H  H92  1  0.17400000  0.41240000  0.00000000  1
  H  H93  1  0.39280000  0.76370000  0.00000000  1
  H  H94  1  0.39250000  0.86500000  0.00000000  1
  H  H95  1  0.05000000  0.41240000  0.00000000  1
  C  C96  1  0.22840000  0.25950000  0.29850000  1
  C  C97  1  0.16910000  0.27560000  0.33050000  1
  C  C98  1  0.13460000  0.23520000  0.36550000  1
  C  C99  1  0.15950000  0.17830000  0.36830000  1
  C  C100  1  0.21880000  0.16220000  0.33670000  1
  C  C101  1  0.25330000  0.20270000  0.30180000  1
  C  C102  1  0.12050000  0.13350000  0.40270000  1
  C  C103  1  0.14000000  0.33600000  0.32810000  1
  C  C104  1  0.05060000  0.03160000  0.03010000  1
  C  C105  1  0.22840000  0.74050000  0.70150000  1
  C  C106  1  0.16910000  0.72440000  0.66950000  1
  C  C107  1  0.13460000  0.76480000  0.63450000  1
  C  C108  1  0.15950000  0.82170000  0.63170000  1
  C  C109  1  0.21880000  0.83780000  0.66330000  1
  C  C110  1  0.25330000  0.79730000  0.69820000  1
  C  C111  1  0.12050000  0.86650000  0.59730000  1
  C  C112  1  0.14000000  0.66400000  0.67190000  1
  C  C113  1  0.72840000  0.70150000  0.25950000  1
  C  C114  1  0.66910000  0.66950000  0.27560000  1
  C  C115  1  0.63460000  0.63450000  0.23520000  1
  C  C116  1  0.65950000  0.63170000  0.17830000  1
  C  C117  1  0.71880000  0.66330000  0.16220000  1
  C  C118  1  0.75330000  0.69820000  0.20270000  1
  C  C119  1  0.62050000  0.59730000  0.13350000  1
  C  C120  1  0.64000000  0.67190000  0.33600000  1
  C  C121  1  0.72840000  0.29850000  0.74050000  1
  C  C122  1  0.66910000  0.33050000  0.72440000  1
  C  C123  1  0.63460000  0.36550000  0.76480000  1
  C  C124  1  0.65950000  0.36830000  0.82170000  1
  C  C125  1  0.71880000  0.33670000  0.83780000  1
  C  C126  1  0.75330000  0.30180000  0.79730000  1
  C  C127  1  0.62050000  0.40270000  0.86650000  1
  C  C128  1  0.64000000  0.32810000  0.66400000  1
  C  C129  1  0.55060000  0.03010000  0.96840000  1
  C  C130  1  0.77160000  0.74050000  0.29850000  1
  C  C131  1  0.83090000  0.72440000  0.33050000  1
  C  C132  1  0.86540000  0.76480000  0.36550000  1
  C  C133  1  0.84050000  0.82170000  0.36830000  1
  C  C134  1  0.78120000  0.83780000  0.33670000  1
  C  C135  1  0.74670000  0.79730000  0.30180000  1
  C  C136  1  0.87950000  0.86650000  0.40270000  1
  C  C137  1  0.94940000  0.96840000  0.03010000  1
  C  C138  1  0.68300000  0.81640000  0.26760000  1
  C  C139  1  0.77160000  0.25950000  0.70150000  1
  C  C140  1  0.83090000  0.27560000  0.66950000  1
  C  C141  1  0.86540000  0.23520000  0.63450000  1
  C  C142  1  0.84050000  0.17830000  0.63170000  1
  C  C143  1  0.78120000  0.16220000  0.66330000  1
  C  C144  1  0.74670000  0.20270000  0.69820000  1
  C  C145  1  0.87950000  0.13350000  0.59730000  1
  C  C146  1  0.68300000  0.18360000  0.73240000  1
  C  C147  1  0.27160000  0.29850000  0.25950000  1
  C  C148  1  0.33090000  0.33050000  0.27560000  1
  C  C149  1  0.36540000  0.36550000  0.23520000  1
  C  C150  1  0.34050000  0.36830000  0.17830000  1
  C  C151  1  0.28120000  0.33670000  0.16220000  1
  C  C152  1  0.24670000  0.30180000  0.20270000  1
  C  C153  1  0.37950000  0.40270000  0.13350000  1
  C  C154  1  0.44940000  0.03010000  0.03160000  1
  C  C155  1  0.18300000  0.26760000  0.18360000  1
  C  C156  1  0.27160000  0.70150000  0.74050000  1
  C  C157  1  0.33090000  0.66950000  0.72440000  1
  C  C158  1  0.36540000  0.63450000  0.76480000  1
  C  C159  1  0.34050000  0.63170000  0.82170000  1
  C  C160  1  0.28120000  0.66330000  0.83780000  1
  C  C161  1  0.24670000  0.69820000  0.79730000  1
  C  C162  1  0.37950000  0.59730000  0.86650000  1
  C  C163  1  0.18300000  0.73240000  0.81640000  1
  C  C164  1  0.77160000  0.74050000  0.70150000  1
  C  C165  1  0.83090000  0.72440000  0.66950000  1
  C  C166  1  0.86540000  0.76480000  0.63450000  1
  C  C167  1  0.84050000  0.82170000  0.63170000  1
  C  C168  1  0.78120000  0.83780000  0.66330000  1
  C  C169  1  0.74670000  0.79730000  0.69820000  1
  C  C170  1  0.87950000  0.86650000  0.59730000  1
  C  C171  1  0.86000000  0.66400000  0.67190000  1
  C  C172  1  0.94940000  0.96840000  0.96990000  1
  C  C173  1  0.77160000  0.25950000  0.29850000  1
  C  C174  1  0.83090000  0.27560000  0.33050000  1
  C  C175  1  0.86540000  0.23520000  0.36550000  1
  C  C176  1  0.84050000  0.17830000  0.36830000  1
  C  C177  1  0.78120000  0.16220000  0.33670000  1
  C  C178  1  0.74670000  0.20270000  0.30180000  1
  C  C179  1  0.87950000  0.13350000  0.40270000  1
  C  C180  1  0.86000000  0.33600000  0.32810000  1
  C  C181  1  0.27160000  0.29850000  0.74050000  1
  C  C182  1  0.33090000  0.33050000  0.72440000  1
  C  C183  1  0.36540000  0.36550000  0.76480000  1
  C  C184  1  0.34050000  0.36830000  0.82170000  1
  C  C185  1  0.28120000  0.33670000  0.83780000  1
  C  C186  1  0.24670000  0.30180000  0.79730000  1
  C  C187  1  0.37950000  0.40270000  0.86650000  1
  C  C188  1  0.36000000  0.32810000  0.66400000  1
  C  C189  1  0.27160000  0.70150000  0.25950000  1
  C  C190  1  0.33090000  0.66950000  0.27560000  1
  C  C191  1  0.36540000  0.63450000  0.23520000  1
  C  C192  1  0.34050000  0.63170000  0.17830000  1
  C  C193  1  0.28120000  0.66330000  0.16220000  1
  C  C194  1  0.24670000  0.69820000  0.20270000  1
  C  C195  1  0.37950000  0.59730000  0.13350000  1
  C  C196  1  0.36000000  0.67190000  0.33600000  1
  C  C197  1  0.44940000  0.96990000  0.03160000  1
  C  C198  1  0.22840000  0.25950000  0.70150000  1
  C  C199  1  0.16910000  0.27560000  0.66950000  1
  C  C200  1  0.13460000  0.23520000  0.63450000  1
  C  C201  1  0.15950000  0.17830000  0.63170000  1
  C  C202  1  0.21880000  0.16220000  0.66330000  1
  C  C203  1  0.25330000  0.20270000  0.69820000  1
  C  C204  1  0.12050000  0.13350000  0.59730000  1
  C  C205  1  0.05060000  0.03160000  0.96990000  1
  C  C206  1  0.31700000  0.18360000  0.73240000  1
  C  C207  1  0.22840000  0.74050000  0.29850000  1
  C  C208  1  0.16910000  0.72440000  0.33050000  1
  C  C209  1  0.13460000  0.76480000  0.36550000  1
  C  C210  1  0.15950000  0.82170000  0.36830000  1
  C  C211  1  0.21880000  0.83780000  0.33670000  1
  C  C212  1  0.25330000  0.79730000  0.30180000  1
  C  C213  1  0.12050000  0.86650000  0.40270000  1
  C  C214  1  0.31700000  0.81640000  0.26760000  1
  C  C215  1  0.72840000  0.70150000  0.74050000  1
  C  C216  1  0.66910000  0.66950000  0.72440000  1
  C  C217  1  0.63460000  0.63450000  0.76480000  1
  C  C218  1  0.65950000  0.63170000  0.82170000  1
  C  C219  1  0.71880000  0.66330000  0.83780000  1
  C  C220  1  0.75330000  0.69820000  0.79730000  1
  C  C221  1  0.62050000  0.59730000  0.86650000  1
  C  C222  1  0.55060000  0.96990000  0.96840000  1
  C  C223  1  0.81700000  0.73240000  0.81640000  1
  C  C224  1  0.72840000  0.29850000  0.25950000  1
  C  C225  1  0.66910000  0.33050000  0.27560000  1
  C  C226  1  0.63460000  0.36550000  0.23520000  1
  C  C227  1  0.65950000  0.36830000  0.17830000  1
  C  C228  1  0.71880000  0.33670000  0.16220000  1
  C  C229  1  0.75330000  0.30180000  0.20270000  1
  C  C230  1  0.62050000  0.40270000  0.13350000  1
  C  C231  1  0.81700000  0.26760000  0.18360000  1
  C  C232  1  0.42490000  0.00000000  0.55200000  1
  C  C233  1  0.35110000  0.00000000  0.55200000  1
  C  C234  1  0.06370000  1.00000000  0.21570000  1
  C  C235  1  0.06390000  0.00000000  0.15550000  1
  C  C236  1  0.42490000  0.00000000  0.44800000  1
  C  C237  1  0.35110000  0.00000000  0.44800000  1
  C  C238  1  0.06370000  0.00000000  0.78430000  1
  C  C239  1  0.06390000  0.00000000  0.84450000  1
  C  C240  1  0.92490000  0.44800000  0.00000000  1
  C  C241  1  0.85110000  0.44800000  0.00000000  1
  C  C242  1  0.56370000  0.78430000  0.00000000  1
  C  C243  1  0.56390000  0.84450000  0.00000000  1
  C  C244  1  0.92490000  0.55200000  0.00000000  1
  C  C245  1  0.85110000  0.55200000  0.00000000  1
  C  C246  1  0.56370000  0.21570000  0.00000000  1
  C  C247  1  0.56390000  0.15550000  0.00000000  1
  C  C248  1  0.57510000  0.00000000  0.55200000  1
  C  C249  1  0.64890000  0.00000000  0.55200000  1
  C  C250  1  0.93630000  1.00000000  0.21570000  1
  C  C251  1  0.93610000  0.00000000  0.15550000  1
  C  C252  1  0.57510000  0.00000000  0.44800000  1
  C  C253  1  0.64890000  0.00000000  0.44800000  1
  C  C254  1  0.93630000  0.00000000  0.78430000  1
  C  C255  1  0.93610000  0.00000000  0.84450000  1
  C  C256  1  0.07510000  0.55200000  0.00000000  1
  C  C257  1  0.14890000  0.55200000  0.00000000  1
  C  C258  1  0.43630000  0.21570000  0.00000000  1
  C  C259  1  0.43610000  0.15550000  0.00000000  1
  C  C260  1  0.07510000  0.44800000  0.00000000  1
  C  C261  1  0.14890000  0.44800000  0.00000000  1
  C  C262  1  0.43630000  0.78430000  0.00000000  1
  C  C263  1  0.43610000  0.84450000  0.00000000  1
  C  C264  1  0.46170000  0.00000000  0.50000000  1
  C  C265  1  0.31420000  0.00000000  0.50000000  1
  C  C266  1  0.23520000  0.00000000  0.50000000  1
  C  C267  1  0.96170000  0.50000000  0.00000000  1
  C  C268  1  0.81420000  0.50000000  0.00000000  1
  C  C269  1  0.73520000  0.50000000  0.00000000  1
  C  C270  1  0.53830000  0.00000000  0.50000000  1
  C  C271  1  0.68580000  0.00000000  0.50000000  1
  C  C272  1  0.76480000  0.00000000  0.50000000  1
  C  C273  1  0.03830000  0.50000000  0.00000000  1
  C  C274  1  0.18580000  0.50000000  0.00000000  1
  C  C275  1  0.26480000  0.50000000  0.00000000  1
  C  C276  1  0.00000000  1.00000000  0.30880000  1
  C  C277  1  0.00000000  0.00000000  0.24580000  1
  C  C278  1  0.00000000  0.00000000  0.12540000  1
  C  C279  1  0.00000000  0.00000000  0.06026000  1
  C  C280  1  0.00000000  0.00000000  0.69120000  1
  C  C281  1  0.00000000  1.00000000  0.75420000  1
  C  C282  1  0.00000000  0.00000000  0.87460000  1
  C  C283  1  0.00000000  0.00000000  0.93974000  1
  C  C284  1  0.50000000  0.69120000  0.00000000  1
  C  C285  1  0.50000000  0.75420000  0.00000000  1
  C  C286  1  0.50000000  0.87460000  0.00000000  1
  C  C287  1  0.50000000  0.93974000  0.00000000  1
  C  C288  1  0.50000000  0.30880000  0.00000000  1
  C  C289  1  0.50000000  0.24580000  0.00000000  1
  C  C290  1  0.50000000  0.12540000  0.00000000  1
  C  C291  1  0.50000000  0.06026000  0.00000000  1
  O  O292  1  0.13990000  0.07890000  0.38720000  1
  O  O293  1  0.07120000  0.15930000  0.44260000  1
  O  O294  1  0.13990000  0.92110000  0.61280000  1
  O  O295  1  0.07120000  0.84070000  0.55740000  1
  O  O296  1  0.63990000  0.61280000  0.07890000  1
  O  O297  1  0.57120000  0.55740000  0.15930000  1
  O  O298  1  0.63990000  0.38720000  0.92110000  1
  O  O299  1  0.57120000  0.44260000  0.84070000  1
  O  O300  1  0.86010000  0.92110000  0.38720000  1
  O  O301  1  0.92880000  0.84070000  0.44260000  1
  O  O302  1  0.86010000  0.07890000  0.61280000  1
  O  O303  1  0.92880000  0.15930000  0.55740000  1
  O  O304  1  0.36010000  0.38720000  0.07890000  1
  O  O305  1  0.42880000  0.44260000  0.15930000  1
  O  O306  1  0.36010000  0.61280000  0.92110000  1
  O  O307  1  0.42880000  0.55740000  0.84070000  1
  O  O308  1  0.86010000  0.92110000  0.61280000  1
  O  O309  1  0.92880000  0.84070000  0.55740000  1
  O  O310  1  0.86010000  0.07890000  0.38720000  1
  O  O311  1  0.92880000  0.15930000  0.44260000  1
  O  O312  1  0.36010000  0.38720000  0.92110000  1
  O  O313  1  0.42880000  0.44260000  0.84070000  1
  O  O314  1  0.36010000  0.61280000  0.07890000  1
  O  O315  1  0.42880000  0.55740000  0.15930000  1
  O  O316  1  0.13990000  0.07890000  0.61280000  1
  O  O317  1  0.07120000  0.15930000  0.55740000  1
  O  O318  1  0.13990000  0.92110000  0.38720000  1
  O  O319  1  0.07120000  0.84070000  0.44260000  1
  O  O320  1  0.63990000  0.61280000  0.92110000  1
  O  O321  1  0.57120000  0.55740000  0.84070000  1
  O  O322  1  0.63990000  0.38720000  0.07890000  1
  O  O323  1  0.57120000  0.44260000  0.15930000  1
  O  O324  1  0.20500000  0.00000000  0.45150000  1
  O  O325  1  0.46300000  0.00000000  0.60200000  1
  O  O326  1  0.05980000  0.00000000  0.33310000  1
  O  O327  1  0.20500000  0.00000000  0.54850000  1
  O  O328  1  0.05980000  1.00000000  0.66690000  1
  O  O329  1  0.70500000  0.54850000  0.00000000  1
  O  O330  1  0.96300000  0.39800000  0.00000000  1
  O  O331  1  0.55980000  0.66690000  0.00000000  1
  O  O332  1  0.70500000  0.45150000  0.00000000  1
  O  O333  1  0.55980000  0.33310000  0.00000000  1
  O  O334  1  0.79500000  0.00000000  0.45150000  1
  O  O335  1  0.94020000  0.00000000  0.33310000  1
  O  O336  1  0.79500000  0.00000000  0.54850000  1
  O  O337  1  0.53700000  0.00000000  0.39800000  1
  O  O338  1  0.94020000  1.00000000  0.66690000  1
  O  O339  1  0.29500000  0.45150000  0.00000000  1
  O  O340  1  0.03700000  0.60200000  0.00000000  1
  O  O341  1  0.44020000  0.33310000  0.00000000  1
  O  O342  1  0.29500000  0.54850000  0.00000000  1
  O  O343  1  0.44020000  0.66690000  0.00000000  1
  O  O344  1  0.00000000  0.05430000  0.42430000  1
  O  O345  1  0.00000000  0.94570000  0.57570000  1
  O  O346  1  0.50000000  0.57570000  0.05430000  1
  O  O347  1  0.50000000  0.42430000  0.94570000  1
  O  O348  1  0.00000000  0.94570000  0.42430000  1
  O  O349  1  0.00000000  0.05430000  0.57570000  1
  O  O350  1  0.50000000  0.42430000  0.05430000  1
  O  O351  1  0.50000000  0.57570000  0.94570000  1
  O  O352  1  0.09170000  0.05470000  0.50000000  1
  O  O353  1  0.09170000  0.94530000  0.50000000  1
  O  O354  1  0.59170000  0.50000000  0.05470000  1
  O  O355  1  0.59170000  0.50000000  0.94530000  1
  O  O356  1  0.90830000  0.05470000  0.50000000  1
  O  O357  1  0.40830000  0.50000000  0.05470000  1
  O  O358  1  0.40830000  0.50000000  0.94530000  1
  O  O359  1  0.90830000  0.94530000  0.50000000  1
  F  F360  1  0.10960000  0.34690000  0.27560000  1
  F  F361  1  0.18850000  0.37660000  0.33530000  1
  F  F362  1  0.08640000  0.34430000  0.36530000  1
  F  F363  1  0.10030000  0.06260000  0.05850000  1
  F  F364  1  0.10960000  0.65310000  0.72440000  1
  F  F365  1  0.18850000  0.62340000  0.66470000  1
  F  F366  1  0.08640000  0.65570000  0.63470000  1
  F  F367  1  0.60960000  0.72440000  0.34690000  1
  F  F368  1  0.68850000  0.66470000  0.37660000  1
  F  F369  1  0.58640000  0.63470000  0.34430000  1
  F  F370  1  0.60960000  0.27560000  0.65310000  1
  F  F371  1  0.68850000  0.33530000  0.62340000  1
  F  F372  1  0.58640000  0.36530000  0.65570000  1
  F  F373  1  0.60030000  0.05850000  0.93740000  1
  F  F374  1  0.62940000  0.77910000  0.26970000  1
  F  F375  1  0.65770000  0.86740000  0.28590000  1
  F  F376  1  0.69950000  0.82380000  0.21130000  1
  F  F377  1  0.62940000  0.22090000  0.73030000  1
  F  F378  1  0.65770000  0.13260000  0.71410000  1
  F  F379  1  0.69950000  0.17620000  0.78870000  1
  F  F380  1  0.12940000  0.26970000  0.22090000  1
  F  F381  1  0.15770000  0.28590000  0.13260000  1
  F  F382  1  0.19950000  0.21130000  0.17620000  1
  F  F383  1  0.12940000  0.73030000  0.77910000  1
  F  F384  1  0.15770000  0.71410000  0.86740000  1
  F  F385  1  0.19950000  0.78870000  0.82380000  1
  F  F386  1  0.89040000  0.65310000  0.72440000  1
  F  F387  1  0.81150000  0.62340000  0.66470000  1
  F  F388  1  0.91360000  0.65570000  0.63470000  1
  F  F389  1  0.89970000  0.93740000  0.94150000  1
  F  F390  1  0.89040000  0.34690000  0.27560000  1
  F  F391  1  0.81150000  0.37660000  0.33530000  1
  F  F392  1  0.91360000  0.34430000  0.36530000  1
  F  F393  1  0.39040000  0.27560000  0.65310000  1
  F  F394  1  0.31150000  0.33530000  0.62340000  1
  F  F395  1  0.41360000  0.36530000  0.65570000  1
  F  F396  1  0.39040000  0.72440000  0.34690000  1
  F  F397  1  0.31150000  0.66470000  0.37660000  1
  F  F398  1  0.41360000  0.63470000  0.34430000  1
  F  F399  1  0.39970000  0.94150000  0.06260000  1
  F  F400  1  0.37060000  0.22090000  0.73030000  1
  F  F401  1  0.34230000  0.13260000  0.71410000  1
  F  F402  1  0.30050000  0.17620000  0.78870000  1
  F  F403  1  0.37060000  0.77910000  0.26970000  1
  F  F404  1  0.34230000  0.86740000  0.28590000  1
  F  F405  1  0.30050000  0.82380000  0.21130000  1
  F  F406  1  0.87060000  0.73030000  0.77910000  1
  F  F407  1  0.84230000  0.71410000  0.86740000  1
  F  F408  1  0.80050000  0.78870000  0.82380000  1
  F  F409  1  0.87060000  0.26970000  0.22090000  1
  F  F410  1  0.84230000  0.28590000  0.13260000  1
  F  F411  1  0.80050000  0.21130000  0.17620000  1
