# generated using pymatgen
data_Zr3H6C16(NO8)2
_symmetry_space_group_name_H-M   'P 1'
_cell_length_a   21.52750000
_cell_length_b   22.19600053
_cell_length_c   22.19600053
_cell_angle_alpha   109.97795792
_cell_angle_beta   107.83262852
_cell_angle_gamma   107.83262852
_symmetry_Int_Tables_number   1
_chemical_formula_structural   Zr3H6C16(NO8)2
_chemical_formula_sum   'Zr24 H48 C128 N16 O128'
_cell_volume   8428.92956411
_cell_formula_units_Z   8
loop_
 _symmetry_equiv_pos_site_id
 _symmetry_equiv_pos_as_xyz
  1  'x, y, z'
loop_
 _atom_site_type_symbol
 _atom_site_label
 _atom_site_symmetry_multiplicity
 _atom_site_fract_x
 _atom_site_fract_y
 _atom_site_fract_z
 _atom_site_occupancy
  C  C0  1  0.18140000  0.22310000  0.10290000  1
  C  C1  1  0.23790000  0.29960000  0.13960000  1
  C  C2  1  0.25340000  0.34790000  0.20830000  1
  C  C3  1  0.30430000  0.41950000  0.24690000  1
  C  C4  1  0.34320000  0.44350000  0.21150000  1
  C  C5  1  0.33080000  0.39940000  0.14500000  1
  C  C6  1  0.27700000  0.32580000  0.10840000  1
  C  C7  1  0.37150000  0.42440000  0.10720000  1
  C  C8  1  0.18850000  0.57270000  0.45090000  1
  C  C9  1  0.24650000  0.59740000  0.43040000  1
  C  C10  1  0.27120000  0.55070000  0.39710000  1
  C  C11  1  0.32810000  0.57500000  0.37920000  1
  C  C12  1  0.36530000  0.64870000  0.40250000  1
  C  C13  1  0.34380000  0.69750000  0.43870000  1
  C  C14  1  0.28720000  0.67380000  0.45620000  1
  C  C15  1  0.38380000  0.77380000  0.45940000  1
  C  C16  1  0.96810000  0.27510000  0.39350000  1
  C  C17  1  0.94680000  0.19770000  0.34770000  1
  C  C18  1  0.89930000  0.14830000  0.35710000  1
  C  C19  1  0.87430000  0.07520000  0.31460000  1
  C  C20  1  0.89470000  0.05130000  0.25990000  1
  C  C21  1  0.94120000  0.10210000  0.25110000  1
  C  C22  1  0.97120000  0.17520000  0.29700000  1
  C  C23  1  0.96210000  0.07610000  0.19190000  1
  C  C24  1  0.61650000  0.72180000  0.18820000  1
  C  C25  1  0.64990000  0.79850000  0.24450000  1
  C  C26  1  0.70510000  0.84550000  0.24210000  1
  C  C27  1  0.73570000  0.91840000  0.29000000  1
  C  C28  1  0.70710000  0.94340000  0.33680000  1
  C  C29  1  0.65100000  0.89410000  0.33730000  1
  C  C30  1  0.62090000  0.82030000  0.29170000  1
  C  C31  1  0.61860000  0.92270000  0.38530000  1
  C  C32  1  0.81860000  0.89710000  0.77690000  1
  C  C33  1  0.76210000  0.86040000  0.70040000  1
  C  C34  1  0.74660000  0.79170000  0.65210000  1
  C  C35  1  0.69570000  0.75310000  0.58050000  1
  C  C36  1  0.65680000  0.78850000  0.55650000  1
  C  C37  1  0.66920000  0.85500000  0.60060000  1
  C  C38  1  0.72300000  0.89160000  0.67420000  1
  C  C39  1  0.62850000  0.89280000  0.57560000  1
  C  C40  1  0.81150000  0.54910000  0.42730000  1
  C  C41  1  0.75350000  0.56960000  0.40260000  1
  C  C42  1  0.72880000  0.60290000  0.44930000  1
  C  C43  1  0.67190000  0.62080000  0.42500000  1
  C  C44  1  0.63470000  0.59750000  0.35130000  1
  C  C45  1  0.65620000  0.56130000  0.30250000  1
  C  C46  1  0.71280000  0.54380000  0.32620000  1
  C  C47  1  0.61620000  0.54060000  0.22620000  1
  C  C48  1  0.96810000  0.39350000  0.27510000  1
  C  C49  1  0.94680000  0.34770000  0.19770000  1
  C  C50  1  0.89930000  0.35710000  0.14830000  1
  C  C51  1  0.87430000  0.31460000  0.07520000  1
  C  C52  1  0.89470000  0.25990000  0.05130000  1
  C  C53  1  0.94120000  0.25110000  0.10210000  1
  C  C54  1  0.97120000  0.29700000  0.17520000  1
  C  C55  1  0.96210000  0.19190000  0.07610000  1
  C  C56  1  0.61650000  0.18820000  0.72180000  1
  C  C57  1  0.64990000  0.24450000  0.79850000  1
  C  C58  1  0.70510000  0.24210000  0.84550000  1
  C  C59  1  0.73570000  0.29000000  0.91840000  1
  C  C60  1  0.70710000  0.33680000  0.94340000  1
  C  C61  1  0.65100000  0.33730000  0.89410000  1
  C  C62  1  0.62090000  0.29170000  0.82030000  1
  C  C63  1  0.61860000  0.38530000  0.92270000  1
  C  C64  1  0.03190000  0.60650000  0.72490000  1
  C  C65  1  0.05320000  0.65230000  0.80230000  1
  C  C66  1  0.10070000  0.64290000  0.85170000  1
  C  C67  1  0.12570000  0.68540000  0.92480000  1
  C  C68  1  0.10530000  0.74010000  0.94870000  1
  C  C69  1  0.05880000  0.74890000  0.89790000  1
  C  C70  1  0.02880000  0.70300000  0.82480000  1
  C  C71  1  0.03790000  0.80810000  0.92390000  1
  C  C72  1  0.38350000  0.81180000  0.27820000  1
  C  C73  1  0.35010000  0.75550000  0.20150000  1
  C  C74  1  0.29490000  0.75790000  0.15450000  1
  C  C75  1  0.26430000  0.71000000  0.08160000  1
  C  C76  1  0.29290000  0.66320000  0.05660000  1
  C  C77  1  0.34900000  0.66270000  0.10590000  1
  C  C78  1  0.37910000  0.70830000  0.17970000  1
  C  C79  1  0.38140000  0.61470000  0.07730000  1
  C  C80  1  0.03190000  0.72490000  0.60650000  1
  C  C81  1  0.05320000  0.80230000  0.65230000  1
  C  C82  1  0.10070000  0.85170000  0.64290000  1
  C  C83  1  0.12570000  0.92480000  0.68540000  1
  C  C84  1  0.10530000  0.94870000  0.74010000  1
  C  C85  1  0.05880000  0.89790000  0.74890000  1
  C  C86  1  0.02880000  0.82480000  0.70300000  1
  C  C87  1  0.03790000  0.92390000  0.80810000  1
  C  C88  1  0.38350000  0.27820000  0.81180000  1
  C  C89  1  0.35010000  0.20150000  0.75550000  1
  C  C90  1  0.29490000  0.15450000  0.75790000  1
  C  C91  1  0.26430000  0.08160000  0.71000000  1
  C  C92  1  0.29290000  0.05660000  0.66320000  1
  C  C93  1  0.34900000  0.10590000  0.66270000  1
  C  C94  1  0.37910000  0.17970000  0.70830000  1
  C  C95  1  0.38140000  0.07730000  0.61470000  1
  C  C96  1  0.81860000  0.77690000  0.89710000  1
  C  C97  1  0.76210000  0.70040000  0.86040000  1
  C  C98  1  0.74660000  0.65210000  0.79170000  1
  C  C99  1  0.69570000  0.58050000  0.75310000  1
  C  C100  1  0.65680000  0.55650000  0.78850000  1
  C  C101  1  0.66920000  0.60060000  0.85500000  1
  C  C102  1  0.72300000  0.67420000  0.89160000  1
  C  C103  1  0.62850000  0.57560000  0.89280000  1
  C  C104  1  0.81150000  0.42730000  0.54910000  1
  C  C105  1  0.75350000  0.40260000  0.56960000  1
  C  C106  1  0.72880000  0.44930000  0.60290000  1
  C  C107  1  0.67190000  0.42500000  0.62080000  1
  C  C108  1  0.63470000  0.35130000  0.59750000  1
  C  C109  1  0.65620000  0.30250000  0.56130000  1
  C  C110  1  0.71280000  0.32620000  0.54380000  1
  C  C111  1  0.61620000  0.22620000  0.54060000  1
  C  C112  1  0.18140000  0.10290000  0.22310000  1
  C  C113  1  0.23790000  0.13960000  0.29960000  1
  C  C114  1  0.25340000  0.20830000  0.34790000  1
  C  C115  1  0.30430000  0.24690000  0.41950000  1
  C  C116  1  0.34320000  0.21150000  0.44350000  1
  C  C117  1  0.33080000  0.14500000  0.39940000  1
  C  C118  1  0.27700000  0.10840000  0.32580000  1
  C  C119  1  0.37150000  0.10720000  0.42440000  1
  C  C120  1  0.18850000  0.45090000  0.57270000  1
  C  C121  1  0.24650000  0.43040000  0.59740000  1
  C  C122  1  0.27120000  0.39710000  0.55070000  1
  C  C123  1  0.32810000  0.37920000  0.57500000  1
  C  C124  1  0.36530000  0.40250000  0.64870000  1
  C  C125  1  0.34380000  0.43870000  0.69750000  1
  C  C126  1  0.28720000  0.45620000  0.67380000  1
  C  C127  1  0.38380000  0.45940000  0.77380000  1
  H  H128  1  0.22640000  0.32980000  0.23040000  1
  H  H129  1  0.37930000  0.49250000  0.23550000  1
  H  H130  1  0.26820000  0.29450000  0.06170000  1
  H  H131  1  0.24920000  0.50160000  0.38640000  1
  H  H132  1  0.40590000  0.66620000  0.39360000  1
  H  H133  1  0.27550000  0.70730000  0.48450000  1
  H  H134  1  0.88370000  0.16400000  0.39260000  1
  H  H135  1  0.87680000  0.00120000  0.22980000  1
  H  H136  1  0.00780000  0.20940000  0.29400000  1
  H  H137  1  0.72260000  0.82900000  0.20840000  1
  H  H138  1  0.72640000  0.99360000  0.36740000  1
  H  H139  1  0.58210000  0.78610000  0.29250000  1
  H  H140  1  0.77360000  0.76960000  0.67020000  1
  H  H141  1  0.62070000  0.76450000  0.50750000  1
  H  H142  1  0.73180000  0.93830000  0.70550000  1
  H  H143  1  0.75080000  0.61360000  0.49840000  1
  H  H144  1  0.59410000  0.60640000  0.33380000  1
  H  H145  1  0.72450000  0.51550000  0.29270000  1
  H  H146  1  0.88370000  0.39260000  0.16400000  1
  H  H147  1  0.87680000  0.22980000  0.00120000  1
  H  H148  1  0.00780000  0.29400000  0.20940000  1
  H  H149  1  0.72260000  0.20840000  0.82900000  1
  H  H150  1  0.72640000  0.36740000  0.99360000  1
  H  H151  1  0.58210000  0.29250000  0.78610000  1
  H  H152  1  0.11630000  0.60740000  0.83600000  1
  H  H153  1  0.12320000  0.77020000  0.99880000  1
  H  H154  1  0.99220000  0.70600000  0.79060000  1
  H  H155  1  0.27740000  0.79160000  0.17100000  1
  H  H156  1  0.27360000  0.63260000  0.00640000  1
  H  H157  1  0.41790000  0.70750000  0.21390000  1
  H  H158  1  0.11630000  0.83600000  0.60740000  1
  H  H159  1  0.12320000  0.99880000  0.77020000  1
  H  H160  1  0.99220000  0.79060000  0.70600000  1
  H  H161  1  0.27740000  0.17100000  0.79160000  1
  H  H162  1  0.27360000  0.00640000  0.63260000  1
  H  H163  1  0.41790000  0.21390000  0.70750000  1
  H  H164  1  0.77360000  0.67020000  0.76960000  1
  H  H165  1  0.62070000  0.50750000  0.76450000  1
  H  H166  1  0.73180000  0.70550000  0.93830000  1
  H  H167  1  0.75080000  0.49840000  0.61360000  1
  H  H168  1  0.59410000  0.33380000  0.60640000  1
  H  H169  1  0.72450000  0.29270000  0.51550000  1
  H  H170  1  0.22640000  0.23040000  0.32980000  1
  H  H171  1  0.37930000  0.23550000  0.49250000  1
  H  H172  1  0.26820000  0.06170000  0.29450000  1
  H  H173  1  0.24920000  0.38640000  0.50160000  1
  H  H174  1  0.40590000  0.39360000  0.66620000  1
  H  H175  1  0.27550000  0.48450000  0.70730000  1
  N  N176  1  0.31280000  0.45990000  0.31470000  1
  N  N177  1  0.36140000  0.52920000  0.35200000  1
  N  N178  1  0.82100000  0.03000000  0.32560000  1
  N  N179  1  0.79460000  0.96510000  0.28570000  1
  N  N180  1  0.68720000  0.68530000  0.54010000  1
  N  N181  1  0.63860000  0.64800000  0.47080000  1
  N  N182  1  0.82100000  0.32560000  0.03000000  1
  N  N183  1  0.79460000  0.28570000  0.96510000  1
  N  N184  1  0.17900000  0.67440000  0.97000000  1
  N  N185  1  0.20540000  0.71430000  0.03490000  1
  N  N186  1  0.17900000  0.97000000  0.67440000  1
  N  N187  1  0.20540000  0.03490000  0.71430000  1
  N  N188  1  0.68720000  0.54010000  0.68530000  1
  N  N189  1  0.63860000  0.47080000  0.64800000  1
  N  N190  1  0.31280000  0.31470000  0.45990000  1
  N  N191  1  0.36140000  0.35200000  0.52920000  1
  O  O192  1  0.02820000  0.00740000  0.10540000  1
  O  O193  1  0.93810000  0.04560000  0.04560000  1
  O  O194  1  0.88740000  0.93490000  0.93490000  1
  O  O195  1  0.93550000  0.39440000  0.39440000  1
  O  O196  1  0.02830000  0.42230000  0.51910000  1
  O  O197  1  0.87960000  0.45770000  0.45770000  1
  O  O198  1  0.50210000  0.40560000  0.95940000  1
  O  O199  1  0.49830000  0.45560000  0.06640000  1
  O  O200  1  0.40170000  0.48280000  0.01020000  1
  O  O201  1  0.40700000  0.43010000  0.89930000  1
  O  O202  1  0.91590000  0.87980000  0.09680000  1
  O  O203  1  0.80010000  0.92920000  0.01720000  1
  O  O204  1  0.92570000  0.33020000  0.54600000  1
  O  O205  1  0.80760000  0.29570000  0.38830000  1
  O  O206  1  0.28320000  0.33220000  0.90980000  1
  O  O207  1  0.40460000  0.29280000  0.98500000  1
  O  O208  1  0.58620000  0.37510000  0.07250000  1
  O  O209  1  0.71550000  0.53050000  0.11490000  1
  O  O210  1  0.14580000  0.20890000  0.13610000  1
  O  O211  1  0.17060000  0.17800000  0.04240000  1
  O  O212  1  0.35810000  0.37970000  0.04550000  1
  O  O213  1  0.41920000  0.49050000  0.14190000  1
  O  O214  1  0.15520000  0.50560000  0.43100000  1
  O  O215  1  0.17080000  0.61990000  0.48370000  1
  O  O216  1  0.36670000  0.82100000  0.49420000  1
  O  O217  1  0.43250000  0.78850000  0.43950000  1
  O  O218  1  0.02410000  0.32430000  0.39750000  1
  O  O219  1  0.93060000  0.28850000  0.42310000  1
  O  O220  1  0.01440000  0.12060000  0.19300000  1
  O  O221  1  0.92120000  0.00910000  0.14410000  1
  O  O222  1  0.63220000  0.71050000  0.13710000  1
  O  O223  1  0.56770000  0.67280000  0.19140000  1
  O  O224  1  0.57680000  0.87650000  0.39450000  1
  O  O225  1  0.63690000  0.98700000  0.41160000  1
  O  O226  1  0.49790000  0.04060000  0.59440000  1
  O  O227  1  0.50170000  0.93360000  0.54440000  1
  O  O228  1  0.59830000  0.98980000  0.51720000  1
  O  O229  1  0.59300000  0.10070000  0.56990000  1
  O  O230  1  0.71680000  0.09020000  0.66780000  1
  O  O231  1  0.59540000  0.01500000  0.70720000  1
  O  O232  1  0.41380000  0.92750000  0.62490000  1
  O  O233  1  0.28450000  0.88510000  0.46950000  1
  O  O234  1  0.85420000  0.86390000  0.79110000  1
  O  O235  1  0.82940000  0.95760000  0.82200000  1
  O  O236  1  0.64190000  0.95450000  0.62030000  1
  O  O237  1  0.58080000  0.85810000  0.50950000  1
  O  O238  1  0.84480000  0.56900000  0.49440000  1
  O  O239  1  0.82920000  0.51630000  0.38010000  1
  O  O240  1  0.63330000  0.50580000  0.17900000  1
  O  O241  1  0.56750000  0.56050000  0.21150000  1
  O  O242  1  0.02820000  0.10540000  0.00740000  1
  O  O243  1  0.02830000  0.51910000  0.42230000  1
  O  O244  1  0.91590000  0.09680000  0.87980000  1
  O  O245  1  0.80010000  0.01720000  0.92920000  1
  O  O246  1  0.92570000  0.54600000  0.33020000  1
  O  O247  1  0.80760000  0.38830000  0.29570000  1
  O  O248  1  0.02410000  0.39750000  0.32430000  1
  O  O249  1  0.93060000  0.42310000  0.28850000  1
  O  O250  1  0.01440000  0.19300000  0.12060000  1
  O  O251  1  0.92120000  0.14410000  0.00910000  1
  O  O252  1  0.63220000  0.13710000  0.71050000  1
  O  O253  1  0.56770000  0.19140000  0.67280000  1
  O  O254  1  0.57680000  0.39450000  0.87650000  1
  O  O255  1  0.63690000  0.41160000  0.98700000  1
  O  O256  1  0.97180000  0.89460000  0.99260000  1
  O  O257  1  0.97180000  0.99260000  0.89460000  1
  O  O258  1  0.11260000  0.06510000  0.06510000  1
  O  O259  1  0.97170000  0.48090000  0.57770000  1
  O  O260  1  0.97170000  0.57770000  0.48090000  1
  O  O261  1  0.12040000  0.54230000  0.54230000  1
  O  O262  1  0.50170000  0.54440000  0.93360000  1
  O  O263  1  0.49830000  0.06640000  0.45560000  1
  O  O264  1  0.59830000  0.51720000  0.98980000  1
  O  O265  1  0.40170000  0.01020000  0.48280000  1
  O  O266  1  0.59300000  0.56990000  0.10070000  1
  O  O267  1  0.40700000  0.89930000  0.43010000  1
  O  O268  1  0.14580000  0.13610000  0.20890000  1
  O  O269  1  0.82940000  0.82200000  0.95760000  1
  O  O270  1  0.58080000  0.50950000  0.85810000  1
  O  O271  1  0.41920000  0.14190000  0.49050000  1
  O  O272  1  0.15520000  0.43100000  0.50560000  1
  O  O273  1  0.82920000  0.38010000  0.51630000  1
  O  O274  1  0.56750000  0.21150000  0.56050000  1
  O  O275  1  0.43250000  0.43950000  0.78850000  1
  O  O276  1  0.36780000  0.28950000  0.86290000  1
  O  O277  1  0.43230000  0.32720000  0.80860000  1
  O  O278  1  0.42320000  0.12350000  0.60550000  1
  O  O279  1  0.36310000  0.01300000  0.58840000  1
  O  O280  1  0.06190000  0.95440000  0.95440000  1
  O  O281  1  0.06450000  0.60560000  0.60560000  1
  O  O282  1  0.08410000  0.90320000  0.12020000  1
  O  O283  1  0.19990000  0.98280000  0.07080000  1
  O  O284  1  0.07430000  0.45400000  0.66980000  1
  O  O285  1  0.19240000  0.61170000  0.70430000  1
  O  O286  1  0.97590000  0.60250000  0.67570000  1
  O  O287  1  0.06940000  0.57690000  0.71150000  1
  O  O288  1  0.98560000  0.80700000  0.87940000  1
  O  O289  1  0.07880000  0.85590000  0.99090000  1
  O  O290  1  0.36780000  0.86290000  0.28950000  1
  O  O291  1  0.43230000  0.80860000  0.32720000  1
  O  O292  1  0.42320000  0.60550000  0.12350000  1
  O  O293  1  0.36310000  0.58840000  0.01300000  1
  O  O294  1  0.08410000  0.12020000  0.90320000  1
  O  O295  1  0.19990000  0.07080000  0.98280000  1
  O  O296  1  0.07430000  0.66980000  0.45400000  1
  O  O297  1  0.19240000  0.70430000  0.61170000  1
  O  O298  1  0.97590000  0.67570000  0.60250000  1
  O  O299  1  0.06940000  0.71150000  0.57690000  1
  O  O300  1  0.98560000  0.87940000  0.80700000  1
  O  O301  1  0.07880000  0.99090000  0.85590000  1
  O  O302  1  0.85420000  0.79110000  0.86390000  1
  O  O303  1  0.17060000  0.04240000  0.17800000  1
  O  O304  1  0.84480000  0.49440000  0.56900000  1
  O  O305  1  0.17080000  0.48370000  0.61990000  1
  O  O306  1  0.49790000  0.59440000  0.04060000  1
  O  O307  1  0.71680000  0.66780000  0.09020000  1
  O  O308  1  0.59540000  0.70720000  0.01500000  1
  O  O309  1  0.41380000  0.62490000  0.92750000  1
  O  O310  1  0.28450000  0.46950000  0.88510000  1
  O  O311  1  0.64190000  0.62030000  0.95450000  1
  O  O312  1  0.63330000  0.17900000  0.50580000  1
  O  O313  1  0.50210000  0.95940000  0.40560000  1
  O  O314  1  0.28320000  0.90980000  0.33220000  1
  O  O315  1  0.40460000  0.98500000  0.29280000  1
  O  O316  1  0.58620000  0.07250000  0.37510000  1
  O  O317  1  0.71550000  0.11490000  0.53050000  1
  O  O318  1  0.35810000  0.04550000  0.37970000  1
  O  O319  1  0.36670000  0.49420000  0.82100000  1
  Zr  Zr320  1  0.05469000  0.11232000  0.11232000  1
  Zr  Zr321  1  0.91160000  0.93971000  0.03689000  1
  Zr  Zr322  1  0.06191000  0.44173000  0.44173000  1
  Zr  Zr323  1  0.91360000  0.38171000  0.47833000  1
  Zr  Zr324  1  0.40259000  0.38236000  0.96800000  1
  Zr  Zr325  1  0.59587000  0.47028000  0.05962000  1
  Zr  Zr326  1  0.50389000  0.44396000  0.88552000  1
  Zr  Zr327  1  0.59741000  0.03200000  0.61764000  1
  Zr  Zr328  1  0.40413000  0.94038000  0.52972000  1
  Zr  Zr329  1  0.49611000  0.11448000  0.55604000  1
  Zr  Zr330  1  0.91160000  0.03689000  0.93971000  1
  Zr  Zr331  1  0.91360000  0.47833000  0.38171000  1
  Zr  Zr332  1  0.94531000  0.88768000  0.88768000  1
  Zr  Zr333  1  0.08840000  0.96311000  0.06029000  1
  Zr  Zr334  1  0.08840000  0.06029000  0.96311000  1
  Zr  Zr335  1  0.93809000  0.55827000  0.55827000  1
  Zr  Zr336  1  0.08640000  0.52167000  0.61829000  1
  Zr  Zr337  1  0.08640000  0.61829000  0.52167000  1
  Zr  Zr338  1  0.59741000  0.61764000  0.03200000  1
  Zr  Zr339  1  0.59587000  0.05962000  0.47028000  1
  Zr  Zr340  1  0.40413000  0.52972000  0.94038000  1
  Zr  Zr341  1  0.49611000  0.55604000  0.11448000  1
  Zr  Zr342  1  0.50389000  0.88552000  0.44396000  1
  Zr  Zr343  1  0.40259000  0.96800000  0.38236000  1
