# generated using pymatgen
data_Zr3H7(C7O6)2
_symmetry_space_group_name_H-M   'P 1'
_cell_length_a   15.23440000
_cell_length_b   25.23790000
_cell_length_c   27.75290000
_cell_angle_alpha   90.00000000
_cell_angle_beta   90.00000000
_cell_angle_gamma   90.00000000
_symmetry_Int_Tables_number   1
_chemical_formula_structural   Zr3H7(C7O6)2
_chemical_formula_sum   'Zr24 H56 C112 O96'
_cell_volume   10670.55332370
_cell_formula_units_Z   8
loop_
 _symmetry_equiv_pos_site_id
 _symmetry_equiv_pos_as_xyz
  1  'x, y, z'
loop_
 _atom_site_type_symbol
 _atom_site_label
 _atom_site_symmetry_multiplicity
 _atom_site_fract_x
 _atom_site_fract_y
 _atom_site_fract_z
 _atom_site_occupancy
  Zr  Zr0  1  0.64344000  0.27771000  0.31314000  1
  Zr  Zr1  1  0.14344000  0.77771000  0.81314000  1
  Zr  Zr2  1  0.64344000  0.72229000  0.18686000  1
  Zr  Zr3  1  0.14344000  0.22229000  0.68686000  1
  Zr  Zr4  1  0.35656000  0.72229000  0.81314000  1
  Zr  Zr5  1  0.85656000  0.22229000  0.31314000  1
  Zr  Zr6  1  0.35656000  0.27771000  0.68686000  1
  Zr  Zr7  1  0.85656000  0.77771000  0.18686000  1
  Zr  Zr8  1  0.35656000  0.72229000  0.68686000  1
  Zr  Zr9  1  0.85656000  0.22229000  0.18686000  1
  Zr  Zr10  1  0.35656000  0.27771000  0.81314000  1
  Zr  Zr11  1  0.85656000  0.77771000  0.31314000  1
  Zr  Zr12  1  0.64344000  0.27771000  0.18686000  1
  Zr  Zr13  1  0.14344000  0.77771000  0.68686000  1
  Zr  Zr14  1  0.64344000  0.72229000  0.31314000  1
  Zr  Zr15  1  0.14344000  0.22229000  0.81314000  1
  Zr  Zr16  1  0.81293000  0.33900000  0.25000000  1
  Zr  Zr17  1  0.31293000  0.83900000  0.75000000  1
  Zr  Zr18  1  0.81293000  0.66100000  0.25000000  1
  Zr  Zr19  1  0.31293000  0.16100000  0.75000000  1
  Zr  Zr20  1  0.18707000  0.66100000  0.75000000  1
  Zr  Zr21  1  0.68707000  0.16100000  0.25000000  1
  Zr  Zr22  1  0.18707000  0.33900000  0.75000000  1
  Zr  Zr23  1  0.68707000  0.83900000  0.25000000  1
  H  H24  1  0.61260000  0.41900000  0.40480000  1
  H  H25  1  0.37830000  0.55180000  0.49910000  1
  H  H26  1  0.11260000  0.91900000  0.90480000  1
  H  H27  1  0.87830000  0.05180000  0.99910000  1
  H  H28  1  0.61260000  0.58100000  0.09520000  1
  H  H29  1  0.11260000  0.08100000  0.59520000  1
  H  H30  1  0.87830000  0.94820000  0.50090000  1
  H  H31  1  0.38740000  0.58100000  0.90480000  1
  H  H32  1  0.62170000  0.44820000  0.99910000  1
  H  H33  1  0.88740000  0.08100000  0.40480000  1
  H  H34  1  0.38740000  0.41900000  0.59520000  1
  H  H35  1  0.88740000  0.91900000  0.09520000  1
  H  H36  1  0.38740000  0.58100000  0.59520000  1
  H  H37  1  0.62170000  0.44820000  0.50090000  1
  H  H38  1  0.88740000  0.08100000  0.09520000  1
  H  H39  1  0.12170000  0.94820000  0.00090000  1
  H  H40  1  0.38740000  0.41900000  0.90480000  1
  H  H41  1  0.88740000  0.91900000  0.40480000  1
  H  H42  1  0.12170000  0.05180000  0.49910000  1
  H  H43  1  0.61260000  0.41900000  0.09520000  1
  H  H44  1  0.37830000  0.55180000  0.00090000  1
  H  H45  1  0.11260000  0.91900000  0.59520000  1
  H  H46  1  0.61260000  0.58100000  0.40480000  1
  H  H47  1  0.11260000  0.08100000  0.90480000  1
  H  H48  1  0.74680000  0.50000000  0.30210000  1
  H  H49  1  0.24680000  1.00000000  0.80210000  1
  H  H50  1  0.74680000  0.50000000  0.19790000  1
  H  H51  1  0.24680000  0.00000000  0.69790000  1
  H  H52  1  0.25320000  0.50000000  0.80210000  1
  H  H53  1  0.75320000  1.00000000  0.30210000  1
  H  H54  1  0.25320000  0.50000000  0.69790000  1
  H  H55  1  0.75320000  1.00000000  0.19790000  1
  H  H56  1  0.34624000  0.55498000  0.42924000  1
  H  H57  1  0.43681000  0.55250000  0.38426000  1
  H  H58  1  0.43334000  0.60672000  0.42970000  1
  H  H59  1  0.62588000  0.40970000  0.55546000  1
  H  H60  1  0.53531000  0.41219000  0.60043000  1
  H  H61  1  0.62241000  0.46392000  0.60090000  1
  H  H62  1  0.90875000  0.89596000  0.56079000  1
  H  H63  1  0.85258000  0.95667000  0.58318000  1
  H  H64  1  0.95506000  0.93318000  0.61282000  1
  H  H65  1  0.04166000  0.09946000  0.41198000  1
  H  H66  1  0.09782000  0.03876000  0.38959000  1
  H  H67  1  0.14414000  0.07598000  0.44163000  1
  H  H68  1  0.59782000  0.46124000  0.88959000  1
  H  H69  1  0.54166000  0.40054000  0.91198000  1
  H  H70  1  0.64414000  0.42402000  0.94163000  1
  H  H71  1  0.35258000  0.54333000  0.08318000  1
  H  H72  1  0.40875000  0.60404000  0.06079000  1
  H  H73  1  0.45506000  0.56682000  0.11282000  1
  H  H74  1  0.84624000  0.05498000  0.92924000  1
  H  H75  1  0.93681000  0.05250000  0.88426000  1
  H  H76  1  0.93334000  0.10672000  0.92970000  1
  H  H77  1  0.12588000  0.90970000  0.05546000  1
  H  H78  1  0.03531000  0.91219000  0.10043000  1
  H  H79  1  0.12241000  0.96392000  0.10090000  1
  C  C80  1  0.67720000  0.45230000  0.34980000  1
  C  C81  1  0.62850000  0.45180000  0.39050000  1
  C  C82  1  0.47300000  0.52950000  0.45730000  1
  C  C83  1  0.42900000  0.52970000  0.49820000  1
  C  C84  1  0.41900000  0.56300000  0.42300000  1
  C  C85  1  0.69450000  0.40210000  0.32720000  1
  C  C86  1  0.96190000  0.33580000  0.32220000  1
  C  C87  1  0.17720000  0.95230000  0.84980000  1
  C  C88  1  0.12850000  0.95180000  0.89050000  1
  C  C89  1  0.97300000  0.02950000  0.95730000  1
  C  C90  1  0.92900000  0.02970000  0.99820000  1
  C  C91  1  0.91900000  0.06300000  0.92300000  1
  C  C92  1  0.19450000  0.90210000  0.82720000  1
  C  C93  1  0.46190000  0.83580000  0.82220000  1
  C  C94  1  0.67720000  0.54770000  0.15020000  1
  C  C95  1  0.62850000  0.54820000  0.10950000  1
  C  C96  1  0.69450000  0.59790000  0.17280000  1
  C  C97  1  0.96190000  0.66420000  0.17780000  1
  C  C98  1  0.17720000  0.04770000  0.65020000  1
  C  C99  1  0.12850000  0.04820000  0.60950000  1
  C  C100  1  0.97300000  0.97050000  0.54270000  1
  C  C101  1  0.92900000  0.97030000  0.50180000  1
  C  C102  1  0.91900000  0.93700000  0.57700000  1
  C  C103  1  0.19450000  0.09790000  0.67280000  1
  C  C104  1  0.46190000  0.16420000  0.67780000  1
  C  C105  1  0.32280000  0.54770000  0.84980000  1
  C  C106  1  0.37150000  0.54820000  0.89050000  1
  C  C107  1  0.52700000  0.47050000  0.95730000  1
  C  C108  1  0.57100000  0.47030000  0.99820000  1
  C  C109  1  0.58100000  0.43700000  0.92300000  1
  C  C110  1  0.30550000  0.59790000  0.82720000  1
  C  C111  1  0.03810000  0.66420000  0.82220000  1
  C  C112  1  0.82280000  0.04770000  0.34980000  1
  C  C113  1  0.87150000  0.04820000  0.39050000  1
  C  C114  1  0.80550000  0.09790000  0.32720000  1
  C  C115  1  0.53810000  0.16420000  0.32220000  1
  C  C116  1  0.32280000  0.45230000  0.65020000  1
  C  C117  1  0.37150000  0.45180000  0.60950000  1
  C  C118  1  0.30550000  0.40210000  0.67280000  1
  C  C119  1  0.03810000  0.33580000  0.67780000  1
  C  C120  1  0.82280000  0.95230000  0.15020000  1
  C  C121  1  0.87150000  0.95180000  0.10950000  1
  C  C122  1  0.80550000  0.90210000  0.17280000  1
  C  C123  1  0.53810000  0.83580000  0.17780000  1
  C  C124  1  0.32280000  0.54770000  0.65020000  1
  C  C125  1  0.37150000  0.54820000  0.60950000  1
  C  C126  1  0.52700000  0.47050000  0.54270000  1
  C  C127  1  0.57100000  0.47030000  0.50180000  1
  C  C128  1  0.58100000  0.43700000  0.57700000  1
  C  C129  1  0.30550000  0.59790000  0.67280000  1
  C  C130  1  0.03810000  0.66420000  0.67780000  1
  C  C131  1  0.82280000  0.04770000  0.15020000  1
  C  C132  1  0.87150000  0.04820000  0.10950000  1
  C  C133  1  0.02700000  0.97050000  0.04270000  1
  C  C134  1  0.07100000  0.97030000  0.00180000  1
  C  C135  1  0.08100000  0.93700000  0.07700000  1
  C  C136  1  0.80550000  0.09790000  0.17280000  1
  C  C137  1  0.53810000  0.16420000  0.17780000  1
  C  C138  1  0.32280000  0.45230000  0.84980000  1
  C  C139  1  0.37150000  0.45180000  0.89050000  1
  C  C140  1  0.30550000  0.40210000  0.82720000  1
  C  C141  1  0.03810000  0.33580000  0.82220000  1
  C  C142  1  0.82280000  0.95230000  0.34980000  1
  C  C143  1  0.87150000  0.95180000  0.39050000  1
  C  C144  1  0.02700000  0.02950000  0.45730000  1
  C  C145  1  0.07100000  0.02970000  0.49820000  1
  C  C146  1  0.08100000  0.06300000  0.42300000  1
  C  C147  1  0.80550000  0.90210000  0.32720000  1
  C  C148  1  0.53810000  0.83580000  0.32220000  1
  C  C149  1  0.67720000  0.45230000  0.15020000  1
  C  C150  1  0.62850000  0.45180000  0.10950000  1
  C  C151  1  0.47300000  0.52950000  0.04270000  1
  C  C152  1  0.42900000  0.52970000  0.00180000  1
  C  C153  1  0.41900000  0.56300000  0.07700000  1
  C  C154  1  0.69450000  0.40210000  0.17280000  1
  C  C155  1  0.96190000  0.33580000  0.17780000  1
  C  C156  1  0.17720000  0.95230000  0.65020000  1
  C  C157  1  0.12850000  0.95180000  0.60950000  1
  C  C158  1  0.19450000  0.90210000  0.67280000  1
  C  C159  1  0.46190000  0.83580000  0.67780000  1
  C  C160  1  0.67720000  0.54770000  0.34980000  1
  C  C161  1  0.62850000  0.54820000  0.39050000  1
  C  C162  1  0.69450000  0.59790000  0.32720000  1
  C  C163  1  0.96190000  0.66420000  0.32220000  1
  C  C164  1  0.17720000  0.04770000  0.84980000  1
  C  C165  1  0.12850000  0.04820000  0.89050000  1
  C  C166  1  0.19450000  0.09790000  0.82720000  1
  C  C167  1  0.46190000  0.16420000  0.82220000  1
  C  C168  1  0.70780000  0.50000000  0.32880000  1
  C  C169  1  0.60100000  0.50000000  0.41170000  1
  C  C170  1  0.55200000  0.50000000  0.45760000  1
  C  C171  1  0.20780000  0.00000000  0.82880000  1
  C  C172  1  0.10100000  0.00000000  0.91170000  1
  C  C173  1  0.05200000  0.00000000  0.95760000  1
  C  C174  1  0.70780000  0.50000000  0.17120000  1
  C  C175  1  0.60100000  0.50000000  0.08830000  1
  C  C176  1  0.55200000  0.50000000  0.04240000  1
  C  C177  1  0.20780000  1.00000000  0.67120000  1
  C  C178  1  0.10100000  1.00000000  0.58830000  1
  C  C179  1  0.05200000  1.00000000  0.54240000  1
  C  C180  1  0.29220000  0.50000000  0.82880000  1
  C  C181  1  0.39900000  0.50000000  0.91170000  1
  C  C182  1  0.44800000  0.50000000  0.95760000  1
  C  C183  1  0.79220000  0.00000000  0.32880000  1
  C  C184  1  0.89900000  1.00000000  0.41170000  1
  C  C185  1  0.94800000  0.00000000  0.45760000  1
  C  C186  1  0.29220000  0.50000000  0.67120000  1
  C  C187  1  0.39900000  0.50000000  0.58830000  1
  C  C188  1  0.44800000  0.50000000  0.54240000  1
  C  C189  1  0.79220000  0.00000000  0.17120000  1
  C  C190  1  0.89900000  0.00000000  0.08830000  1
  C  C191  1  0.94800000  0.00000000  0.04240000  1
  O  O192  1  0.77610000  0.29340000  0.18670000  1
  O  O193  1  0.75840000  0.40130000  0.29850000  1
  O  O194  1  0.65380000  0.36210000  0.34010000  1
  O  O195  1  0.91700000  0.36110000  0.29610000  1
  O  O196  1  0.94880000  0.28530000  0.34020000  1
  O  O197  1  0.27610000  0.79340000  0.68670000  1
  O  O198  1  0.25840000  0.90130000  0.79850000  1
  O  O199  1  0.15380000  0.86210000  0.84010000  1
  O  O200  1  0.41700000  0.86110000  0.79610000  1
  O  O201  1  0.44880000  0.78530000  0.84020000  1
  O  O202  1  0.77610000  0.70660000  0.31330000  1
  O  O203  1  0.75840000  0.59870000  0.20150000  1
  O  O204  1  0.65380000  0.63790000  0.15990000  1
  O  O205  1  0.91700000  0.63890000  0.20390000  1
  O  O206  1  0.94880000  0.71470000  0.15980000  1
  O  O207  1  0.27610000  0.20660000  0.81330000  1
  O  O208  1  0.25840000  0.09870000  0.70150000  1
  O  O209  1  0.15380000  0.13790000  0.65990000  1
  O  O210  1  0.41700000  0.13890000  0.70390000  1
  O  O211  1  0.44880000  0.21470000  0.65980000  1
  O  O212  1  0.22390000  0.70660000  0.68670000  1
  O  O213  1  0.24160000  0.59870000  0.79850000  1
  O  O214  1  0.34620000  0.63790000  0.84010000  1
  O  O215  1  0.08300000  0.63890000  0.79610000  1
  O  O216  1  0.05120000  0.71470000  0.84020000  1
  O  O217  1  0.72390000  0.20660000  0.18670000  1
  O  O218  1  0.74160000  0.09870000  0.29850000  1
  O  O219  1  0.84620000  0.13790000  0.34010000  1
  O  O220  1  0.58300000  0.13890000  0.29610000  1
  O  O221  1  0.55120000  0.21470000  0.34020000  1
  O  O222  1  0.22390000  0.29340000  0.81330000  1
  O  O223  1  0.24160000  0.40130000  0.70150000  1
  O  O224  1  0.34620000  0.36210000  0.65990000  1
  O  O225  1  0.08300000  0.36110000  0.70390000  1
  O  O226  1  0.05120000  0.28530000  0.65980000  1
  O  O227  1  0.72390000  0.79340000  0.31330000  1
  O  O228  1  0.74160000  0.90130000  0.20150000  1
  O  O229  1  0.84620000  0.86210000  0.15990000  1
  O  O230  1  0.58300000  0.86110000  0.20390000  1
  O  O231  1  0.55120000  0.78530000  0.15980000  1
  O  O232  1  0.22390000  0.70660000  0.81330000  1
  O  O233  1  0.24160000  0.59870000  0.70150000  1
  O  O234  1  0.34620000  0.63790000  0.65990000  1
  O  O235  1  0.08300000  0.63890000  0.70390000  1
  O  O236  1  0.05120000  0.71470000  0.65980000  1
  O  O237  1  0.72390000  0.20660000  0.31330000  1
  O  O238  1  0.74160000  0.09870000  0.20150000  1
  O  O239  1  0.84620000  0.13790000  0.15990000  1
  O  O240  1  0.58300000  0.13890000  0.20390000  1
  O  O241  1  0.55120000  0.21470000  0.15980000  1
  O  O242  1  0.22390000  0.29340000  0.68670000  1
  O  O243  1  0.24160000  0.40130000  0.79850000  1
  O  O244  1  0.34620000  0.36210000  0.84010000  1
  O  O245  1  0.08300000  0.36110000  0.79610000  1
  O  O246  1  0.05120000  0.28530000  0.84020000  1
  O  O247  1  0.72390000  0.79340000  0.18670000  1
  O  O248  1  0.74160000  0.90130000  0.29850000  1
  O  O249  1  0.84620000  0.86210000  0.34010000  1
  O  O250  1  0.58300000  0.86110000  0.29610000  1
  O  O251  1  0.55120000  0.78530000  0.34020000  1
  O  O252  1  0.77610000  0.29340000  0.31330000  1
  O  O253  1  0.75840000  0.40130000  0.20150000  1
  O  O254  1  0.65380000  0.36210000  0.15990000  1
  O  O255  1  0.91700000  0.36110000  0.20390000  1
  O  O256  1  0.94880000  0.28530000  0.15980000  1
  O  O257  1  0.27610000  0.79340000  0.81330000  1
  O  O258  1  0.25840000  0.90130000  0.70150000  1
  O  O259  1  0.15380000  0.86210000  0.65990000  1
  O  O260  1  0.41700000  0.86110000  0.70390000  1
  O  O261  1  0.44880000  0.78530000  0.65980000  1
  O  O262  1  0.77610000  0.70660000  0.18670000  1
  O  O263  1  0.75840000  0.59870000  0.29850000  1
  O  O264  1  0.65380000  0.63790000  0.34010000  1
  O  O265  1  0.91700000  0.63890000  0.29610000  1
  O  O266  1  0.94880000  0.71470000  0.34020000  1
  O  O267  1  0.27610000  0.20660000  0.68670000  1
  O  O268  1  0.25840000  0.09870000  0.79850000  1
  O  O269  1  0.15380000  0.13790000  0.84010000  1
  O  O270  1  0.41700000  0.13890000  0.79610000  1
  O  O271  1  0.44880000  0.21470000  0.84020000  1
  O  O272  1  0.88720000  0.26660000  0.25000000  1
  O  O273  1  0.67060000  0.31770000  0.25000000  1
  O  O274  1  0.38720000  0.76660000  0.75000000  1
  O  O275  1  0.17060000  0.81770000  0.75000000  1
  O  O276  1  0.88720000  0.73340000  0.25000000  1
  O  O277  1  0.67060000  0.68230000  0.25000000  1
  O  O278  1  0.38720000  0.23340000  0.75000000  1
  O  O279  1  0.17060000  0.18230000  0.75000000  1
  O  O280  1  0.11280000  0.73340000  0.75000000  1
  O  O281  1  0.32940000  0.68230000  0.75000000  1
  O  O282  1  0.61280000  0.23340000  0.25000000  1
  O  O283  1  0.82940000  0.18230000  0.25000000  1
  O  O284  1  0.11280000  0.26660000  0.75000000  1
  O  O285  1  0.32940000  0.31770000  0.75000000  1
  O  O286  1  0.61280000  0.76660000  0.25000000  1
  O  O287  1  0.82940000  0.81770000  0.25000000  1
