# generated using pymatgen
data_Zr3H9(C3O2)8
_symmetry_space_group_name_H-M   'P 1'
_cell_length_a   21.09620563
_cell_length_b   21.09620563
_cell_length_c   21.09620563
_cell_angle_alpha   109.47122063
_cell_angle_beta   109.47122063
_cell_angle_gamma   109.47122063
_symmetry_Int_Tables_number   1
_chemical_formula_structural   Zr3H9(C3O2)8
_chemical_formula_sum   'Zr24 H72 C192 O128'
_cell_volume   7227.55090658
_cell_formula_units_Z   8
loop_
 _symmetry_equiv_pos_site_id
 _symmetry_equiv_pos_as_xyz
  1  'x, y, z'
loop_
 _atom_site_type_symbol
 _atom_site_label
 _atom_site_symmetry_multiplicity
 _atom_site_fract_x
 _atom_site_fract_y
 _atom_site_fract_z
 _atom_site_occupancy
  C  C0  1  0.25651100  0.85286100  0.90033000  1
  C  C1  1  0.17015200  0.79811200  0.86872000  1
  C  C2  1  0.14912000  0.74834000  0.89746000  1
  C  C3  1  0.11268200  0.79811200  0.81125000  1
  C  C4  1  0.03418000  0.74834000  0.78252000  1
  C  C5  1  0.94391000  0.39660100  0.75635100  1
  C  C6  1  0.91230000  0.34185200  0.66999200  1
  C  C7  1  0.94103000  0.29208000  0.64895000  1
  C  C8  1  0.85483000  0.34185200  0.61252200  1
  C  C9  1  0.82609000  0.29208000  0.53401000  1
  C  C10  1  0.40365000  0.04746900  0.14713900  1
  C  C11  1  0.07060800  0.69856800  0.86872000  1
  C  C12  1  0.37204000  0.07060800  0.20188800  1
  C  C13  1  0.01313800  0.69856800  0.81125000  1
  C  C14  1  0.04746900  0.64381900  0.90033000  1
  C  C15  1  0.96582000  0.74834000  0.71416000  1
  C  C16  1  0.40078000  0.14912000  0.25166000  1
  C  C17  1  0.31457000  0.01313800  0.20188800  1
  C  C18  1  0.88731800  0.69856800  0.68543000  1
  C  C19  1  0.98686200  0.79811200  0.68543000  1
  C  C20  1  0.37204000  0.17015200  0.30143200  1
  C  C21  1  0.28584000  0.03418000  0.25166000  1
  C  C22  1  0.82984800  0.69856800  0.62796000  1
  C  C23  1  0.92939200  0.79811200  0.62796000  1
  C  C24  1  0.31457000  0.11268200  0.30143200  1
  C  C25  1  0.40365000  0.25651100  0.35618100  1
  C  C26  1  0.21748000  0.96582000  0.25166000  1
  C  C27  1  0.85088000  0.74834000  0.59922000  1
  C  C28  1  0.74348900  0.64381900  0.59635000  1
  C  C29  1  0.95253100  0.85286100  0.59635000  1
  C  C30  1  0.18875000  0.88731800  0.20188800  1
  C  C31  1  0.18875000  0.98686200  0.30143200  1
  C  C32  1  0.09967000  0.74348900  0.14713900  1
  C  C33  1  0.13128000  0.82984800  0.20188800  1
  C  C34  1  0.13128000  0.92939200  0.30143200  1
  C  C35  1  0.10254000  0.85088000  0.25166000  1
  C  C36  1  0.09967000  0.95253100  0.35618100  1
  C  C37  1  0.91230000  0.24230800  0.57044800  1
  C  C38  1  0.64025000  0.39660100  0.45269100  1
  C  C39  1  0.85483000  0.24230800  0.51297800  1
  C  C40  1  0.94391000  0.18755900  0.54730900  1
  C  C41  1  0.75807000  0.29208000  0.46599000  1
  C  C42  1  0.67186000  0.34185200  0.42955200  1
  C  C43  1  0.72933000  0.34185200  0.48702200  1
  C  C44  1  0.72933000  0.24230800  0.38747800  1
  C  C45  1  0.64313000  0.29208000  0.35105000  1
  C  C46  1  0.67186000  0.24230800  0.33000800  1
  C  C47  1  0.64025000  0.18755900  0.24364900  1
  C  C48  1  0.05609000  0.81244100  0.45269100  1
  C  C49  1  0.08770000  0.75769200  0.42955200  1
  C  C50  1  0.05897000  0.70792000  0.35105000  1
  C  C51  1  0.14517000  0.75769200  0.48702200  1
  C  C52  1  0.17391000  0.70792000  0.46599000  1
  C  C53  1  0.59635000  0.74348900  0.64381900  1
  C  C54  1  0.62796000  0.82984800  0.69856800  1
  C  C55  1  0.59922000  0.85088000  0.74834000  1
  C  C56  1  0.68543000  0.88731800  0.69856800  1
  C  C57  1  0.62796000  0.92939200  0.79811200  1
  C  C58  1  0.71416000  0.96582000  0.74834000  1
  C  C59  1  0.68543000  0.98686200  0.79811200  1
  C  C60  1  0.59635000  0.95253100  0.85286100  1
  C  C61  1  0.78252000  0.03418000  0.74834000  1
  C  C62  1  0.81125000  0.01313800  0.69856800  1
  C  C63  1  0.81125000  0.11268200  0.79811200  1
  C  C64  1  0.90033000  0.04746900  0.64381900  1
  C  C65  1  0.86872000  0.07060800  0.69856800  1
  C  C66  1  0.86872000  0.17015200  0.79811200  1
  C  C67  1  0.89746000  0.14912000  0.74834000  1
  C  C68  1  0.90033000  0.25651100  0.85286100  1
  C  C69  1  0.08770000  0.65814800  0.33000800  1
  C  C70  1  0.35975000  0.81244100  0.75635100  1
  C  C71  1  0.14517000  0.65814800  0.38747800  1
  C  C72  1  0.05609000  0.60339900  0.24364900  1
  C  C73  1  0.24193000  0.70792000  0.53401000  1
  C  C74  1  0.32814000  0.75769200  0.66999200  1
  C  C75  1  0.27067000  0.75769200  0.61252200  1
  C  C76  1  0.27067000  0.65814800  0.51297800  1
  C  C77  1  0.35687000  0.70792000  0.64895000  1
  C  C78  1  0.32814000  0.65814800  0.57044800  1
  C  C79  1  0.35975000  0.60339900  0.54730900  1
  C  C80  1  0.95253100  0.35618100  0.09967000  1
  C  C81  1  0.92939200  0.30143200  0.13128000  1
  C  C82  1  0.85088000  0.25166000  0.10254000  1
  C  C83  1  0.98686200  0.30143200  0.18875000  1
  C  C84  1  0.96582000  0.25166000  0.21748000  1
  C  C85  1  0.82984800  0.20188800  0.13128000  1
  C  C86  1  0.88731800  0.20188800  0.18875000  1
  C  C87  1  0.74348900  0.14713900  0.09967000  1
  C  C88  1  0.03418000  0.25166000  0.28584000  1
  C  C89  1  0.01313800  0.20188800  0.31457000  1
  C  C90  1  0.11268200  0.30143200  0.31457000  1
  C  C91  1  0.07060800  0.20188800  0.37204000  1
  C  C92  1  0.17015200  0.30143200  0.37204000  1
  C  C93  1  0.14912000  0.25166000  0.40078000  1
  C  C94  1  0.04746900  0.14713900  0.40365000  1
  C  C95  1  0.25651100  0.35618100  0.40365000  1
  C  C96  1  0.35618100  0.09967000  0.95253100  1
  C  C97  1  0.30143200  0.13128000  0.92939200  1
  C  C98  1  0.25166000  0.10254000  0.85088000  1
  C  C99  1  0.30143200  0.18875000  0.98686200  1
  C  C100  1  0.25166000  0.21748000  0.96582000  1
  C  C101  1  0.18755900  0.24364900  0.64025000  1
  C  C102  1  0.24230800  0.33000800  0.67186000  1
  C  C103  1  0.29208000  0.35105000  0.64313000  1
  C  C104  1  0.24230800  0.38747800  0.72933000  1
  C  C105  1  0.29208000  0.46599000  0.75807000  1
  C  C106  1  0.20188800  0.13128000  0.82984800  1
  C  C107  1  0.20188800  0.18875000  0.88731800  1
  C  C108  1  0.14713900  0.09967000  0.74348900  1
  C  C109  1  0.25166000  0.28584000  0.03418000  1
  C  C110  1  0.20188800  0.31457000  0.01313800  1
  C  C111  1  0.30143200  0.31457000  0.11268200  1
  C  C112  1  0.20188800  0.37204000  0.07060800  1
  C  C113  1  0.30143200  0.37204000  0.17015200  1
  C  C114  1  0.25166000  0.40078000  0.14912000  1
  C  C115  1  0.14713900  0.40365000  0.04746900  1
  C  C116  1  0.35618100  0.40365000  0.25651100  1
  C  C117  1  0.34185200  0.42955200  0.67186000  1
  C  C118  1  0.18755900  0.54730900  0.94391000  1
  C  C119  1  0.34185200  0.48702200  0.72933000  1
  C  C120  1  0.39660100  0.45269100  0.64025000  1
  C  C121  1  0.29208000  0.53401000  0.82609000  1
  C  C122  1  0.24230800  0.57044800  0.91230000  1
  C  C123  1  0.24230800  0.51297800  0.85483000  1
  C  C124  1  0.34185200  0.61252200  0.85483000  1
  C  C125  1  0.29208000  0.64895000  0.94103000  1
  C  C126  1  0.34185200  0.66999200  0.91230000  1
  C  C127  1  0.39660100  0.75635100  0.94391000  1
  C  C128  1  0.64381900  0.59635000  0.74348900  1
  C  C129  1  0.69856800  0.62796000  0.82984800  1
  C  C130  1  0.74834000  0.59922000  0.85088000  1
  C  C131  1  0.69856800  0.68543000  0.88731800  1
  C  C132  1  0.74834000  0.71416000  0.96582000  1
  C  C133  1  0.81244100  0.45269100  0.05609000  1
  C  C134  1  0.75769200  0.42955200  0.08770000  1
  C  C135  1  0.70792000  0.35105000  0.05897000  1
  C  C136  1  0.75769200  0.48702200  0.14517000  1
  C  C137  1  0.70792000  0.46599000  0.17391000  1
  C  C138  1  0.79811200  0.62796000  0.92939200  1
  C  C139  1  0.79811200  0.68543000  0.98686200  1
  C  C140  1  0.85286100  0.59635000  0.95253100  1
  C  C141  1  0.74834000  0.78252000  0.03418000  1
  C  C142  1  0.79811200  0.81125000  0.11268200  1
  C  C143  1  0.69856800  0.81125000  0.01313800  1
  C  C144  1  0.79811200  0.86872000  0.17015200  1
  C  C145  1  0.69856800  0.86872000  0.07060800  1
  C  C146  1  0.74834000  0.89746000  0.14912000  1
  C  C147  1  0.85286100  0.90033000  0.25651100  1
  C  C148  1  0.64381900  0.90033000  0.04746900  1
  C  C149  1  0.65814800  0.33000800  0.08770000  1
  C  C150  1  0.81244100  0.75635100  0.35975000  1
  C  C151  1  0.65814800  0.38747800  0.14517000  1
  C  C152  1  0.60339900  0.24364900  0.05609000  1
  C  C153  1  0.70792000  0.53401000  0.24193000  1
  C  C154  1  0.75769200  0.66999200  0.32814000  1
  C  C155  1  0.75769200  0.61252200  0.27067000  1
  C  C156  1  0.65814800  0.51297800  0.27067000  1
  C  C157  1  0.70792000  0.64895000  0.35687000  1
  C  C158  1  0.65814800  0.57044800  0.32814000  1
  C  C159  1  0.60339900  0.54730900  0.35975000  1
  C  C160  1  0.54730900  0.35975000  0.60339900  1
  C  C161  1  0.57044800  0.32814000  0.65814800  1
  C  C162  1  0.64895000  0.35687000  0.70792000  1
  C  C163  1  0.51297800  0.27067000  0.65814800  1
  C  C164  1  0.53401000  0.24193000  0.70792000  1
  C  C165  1  0.66999200  0.32814000  0.75769200  1
  C  C166  1  0.24364900  0.05609000  0.60339900  1
  C  C167  1  0.61252200  0.27067000  0.75769200  1
  C  C168  1  0.75635100  0.35975000  0.81244100  1
  C  C169  1  0.46599000  0.17391000  0.70792000  1
  C  C170  1  0.33000800  0.08770000  0.65814800  1
  C  C171  1  0.38747800  0.14517000  0.65814800  1
  C  C172  1  0.48702200  0.14517000  0.75769200  1
  C  C173  1  0.35105000  0.05897000  0.70792000  1
  C  C174  1  0.42955200  0.08770000  0.75769200  1
  C  C175  1  0.45269100  0.05609000  0.81244100  1
  C  C176  1  0.75635100  0.94391000  0.39660100  1
  C  C177  1  0.66999200  0.91230000  0.34185200  1
  C  C178  1  0.64895000  0.94103000  0.29208000  1
  C  C179  1  0.61252200  0.85483000  0.34185200  1
  C  C180  1  0.53401000  0.82609000  0.29208000  1
  C  C181  1  0.57044800  0.91230000  0.24230800  1
  C  C182  1  0.45269100  0.64025000  0.39660100  1
  C  C183  1  0.51297800  0.85483000  0.24230800  1
  C  C184  1  0.54730900  0.94391000  0.18755900  1
  C  C185  1  0.46599000  0.75807000  0.29208000  1
  C  C186  1  0.42955200  0.67186000  0.34185200  1
  C  C187  1  0.48702200  0.72933000  0.34185200  1
  C  C188  1  0.38747800  0.72933000  0.24230800  1
  C  C189  1  0.35105000  0.64313000  0.29208000  1
  C  C190  1  0.33000800  0.67186000  0.24230800  1
  C  C191  1  0.24364900  0.64025000  0.18755900  1
  H  H192  1  0.19387000  0.74834000  0.94221000  1
  H  H193  1  0.12906300  0.83686300  0.78888000  1
  H  H194  1  0.98578000  0.29208000  0.69370000  1
  H  H195  1  0.83245000  0.38060300  0.62889300  1
  H  H196  1  0.95201700  0.65981700  0.78888000  1
  H  H197  1  0.44553000  0.19387000  0.25166000  1
  H  H198  1  0.29220000  0.95201700  0.16313700  1
  H  H199  1  0.87093700  0.65981700  0.70780000  1
  H  H200  1  0.04798300  0.83686300  0.70780000  1
  H  H201  1  0.29220000  0.12906300  0.34018300  1
  H  H202  1  0.80613000  0.74834000  0.55447000  1
  H  H203  1  0.21112000  0.87093700  0.16313700  1
  H  H204  1  0.21112000  0.04798300  0.34018300  1
  H  H205  1  0.05779000  0.80613000  0.25166000  1
  H  H206  1  0.83245000  0.20355700  0.45184700  1
  H  H207  1  0.75171000  0.38060300  0.54815300  1
  H  H208  1  0.75171000  0.20355700  0.37110700  1
  H  H209  1  0.59838000  0.29208000  0.30630000  1
  H  H210  1  0.01422000  0.70792000  0.30630000  1
  H  H211  1  0.16755000  0.79644300  0.54815300  1
  H  H212  1  0.55447000  0.80613000  0.74834000  1
  H  H213  1  0.70780000  0.87093700  0.65981700  1
  H  H214  1  0.70780000  0.04798300  0.83686300  1
  H  H215  1  0.78888000  0.95201700  0.65981700  1
  H  H216  1  0.78888000  0.12906300  0.83686300  1
  H  H217  1  0.94221000  0.19387000  0.74834000  1
  H  H218  1  0.16755000  0.61939700  0.37110700  1
  H  H219  1  0.24829000  0.79644300  0.62889300  1
  H  H220  1  0.24829000  0.61939700  0.45184700  1
  H  H221  1  0.40162000  0.70792000  0.69370000  1
  H  H222  1  0.80613000  0.25166000  0.05779000  1
  H  H223  1  0.04798300  0.34018300  0.21112000  1
  H  H224  1  0.87093700  0.16313700  0.21112000  1
  H  H225  1  0.95201700  0.16313700  0.29220000  1
  H  H226  1  0.12906300  0.34018300  0.29220000  1
  H  H227  1  0.19387000  0.25166000  0.44553000  1
  H  H228  1  0.25166000  0.05779000  0.80613000  1
  H  H229  1  0.34018300  0.21112000  0.04798300  1
  H  H230  1  0.29208000  0.30630000  0.59838000  1
  H  H231  1  0.20355700  0.37110700  0.75171000  1
  H  H232  1  0.16313700  0.21112000  0.87093700  1
  H  H233  1  0.16313700  0.29220000  0.95201700  1
  H  H234  1  0.34018300  0.29220000  0.12906300  1
  H  H235  1  0.25166000  0.44553000  0.19387000  1
  H  H236  1  0.38060300  0.54815300  0.75171000  1
  H  H237  1  0.20355700  0.45184700  0.83245000  1
  H  H238  1  0.38060300  0.62889300  0.83245000  1
  H  H239  1  0.29208000  0.69370000  0.98578000  1
  H  H240  1  0.74834000  0.55447000  0.80613000  1
  H  H241  1  0.65981700  0.70780000  0.87093700  1
  H  H242  1  0.70792000  0.30630000  0.01422000  1
  H  H243  1  0.79644300  0.54815300  0.16755000  1
  H  H244  1  0.83686300  0.70780000  0.04798300  1
  H  H245  1  0.83686300  0.78888000  0.12906300  1
  H  H246  1  0.65981700  0.78888000  0.95201700  1
  H  H247  1  0.74834000  0.94221000  0.19387000  1
  H  H248  1  0.61939700  0.37110700  0.16755000  1
  H  H249  1  0.79644300  0.62889300  0.24829000  1
  H  H250  1  0.61939700  0.45184700  0.24829000  1
  H  H251  1  0.70792000  0.69370000  0.40162000  1
  H  H252  1  0.69370000  0.40162000  0.70792000  1
  H  H253  1  0.45184700  0.24829000  0.61939700  1
  H  H254  1  0.62889300  0.24829000  0.79644300  1
  H  H255  1  0.37110700  0.16755000  0.61939700  1
  H  H256  1  0.54815300  0.16755000  0.79644300  1
  H  H257  1  0.30630000  0.01422000  0.70792000  1
  H  H258  1  0.69370000  0.98578000  0.29208000  1
  H  H259  1  0.62889300  0.83245000  0.38060300  1
  H  H260  1  0.45184700  0.83245000  0.20355700  1
  H  H261  1  0.54815300  0.75171000  0.38060300  1
  H  H262  1  0.37110700  0.75171000  0.20355700  1
  H  H263  1  0.30630000  0.59838000  0.29208000  1
  O  O264  1  0.27445000  0.88263000  0.85508000  1
  O  O265  1  0.30212000  0.86287000  0.97211000  1
  O  O266  1  0.91535000  0.44467000  0.78052000  1
  O  O267  1  0.03437000  0.52106000  0.91749000  1
  O  O268  1  0.00000000  0.60734000  0.00000000  1
  O  O269  1  0.80971000  0.41367000  0.80702000  1
  O  O270  1  0.39182000  0.97245000  0.11737000  1
  O  O271  1  0.43925000  0.10924000  0.13713000  1
  O  O272  1  0.97245000  0.58063000  0.85508000  1
  O  O273  1  0.10924000  0.66999000  0.97211000  1
  O  O274  1  0.88312000  0.48669000  0.96563000  1
  O  O275  1  0.91749000  0.39643000  0.88312000  1
  O  O276  1  0.86287000  0.56075000  0.89076000  1
  O  O277  1  0.08251000  0.60357000  0.11688000  1
  O  O278  1  0.21948000  0.66415000  0.13483000  1
  O  O279  1  0.14492000  0.72555000  0.11737000  1
  O  O280  1  0.11688000  0.51331000  0.03437000  1
  O  O281  1  0.19298000  0.60665000  0.00269000  1
  O  O282  1  0.39182000  0.27445000  0.41937000  1
  O  O283  1  0.43925000  0.30212000  0.33001000  1
  O  O284  1  0.72555000  0.58063000  0.60818000  1
  O  O285  1  0.69788000  0.66999000  0.56075000  1
  O  O286  1  0.02755000  0.88263000  0.60818000  1
  O  O287  1  0.89076000  0.86287000  0.56075000  1
  O  O288  1  0.00269000  0.39604000  0.80971000  1
  O  O289  1  0.02789000  0.69788000  0.13713000  1
  O  O290  1  0.96563000  0.47894000  0.08251000  1
  O  O291  1  0.86517000  0.52932000  0.08465000  1
  O  O292  1  0.88263000  0.60818000  0.02755000  1
  O  O293  1  0.99731000  0.60396000  0.19029000  1
  O  O294  1  0.19029000  0.58633000  0.19298000  1
  O  O295  1  0.66415000  0.44467000  0.52932000  1
  O  O296  1  0.14492000  0.02755000  0.41937000  1
  O  O297  1  0.02789000  0.89076000  0.33001000  1
  O  O298  1  0.58633000  0.39604000  0.39335000  1
  O  O299  1  0.00269000  0.19298000  0.60665000  1
  O  O300  1  0.91535000  0.13483000  0.47068000  1
  O  O301  1  0.66415000  0.13483000  0.21948000  1
  O  O302  1  0.58633000  0.19298000  0.19029000  1
  O  O303  1  0.08465000  0.86517000  0.52932000  1
  O  O304  1  0.96563000  0.88312000  0.48669000  1
  O  O305  1  0.00000000  1.00000000  0.60734000  1
  O  O306  1  0.19029000  0.99731000  0.60396000  1
  O  O307  1  0.60818000  0.72555000  0.58063000  1
  O  O308  1  0.56075000  0.69788000  0.66999000  1
  O  O309  1  0.11688000  0.08251000  0.60357000  1
  O  O310  1  0.08251000  0.96563000  0.47894000  1
  O  O311  1  0.13713000  0.02789000  0.69788000  1
  O  O312  1  0.91749000  0.03437000  0.52106000  1
  O  O313  1  0.78052000  0.91535000  0.44467000  1
  O  O314  1  0.85508000  0.97245000  0.58063000  1
  O  O315  1  0.88312000  0.91749000  0.39643000  1
  O  O316  1  0.80702000  0.80971000  0.41367000  1
  O  O317  1  0.60818000  0.02755000  0.88263000  1
  O  O318  1  0.56075000  0.89076000  0.86287000  1
  O  O319  1  0.99731000  0.80702000  0.39335000  1
  O  O320  1  0.97211000  0.10924000  0.66999000  1
  O  O321  1  0.03437000  0.11688000  0.51331000  1
  O  O322  1  0.13483000  0.21948000  0.66415000  1
  O  O323  1  0.11737000  0.14492000  0.72555000  1
  O  O324  1  0.80971000  0.00269000  0.39604000  1
  O  O325  1  0.33585000  0.86517000  0.78052000  1
  O  O326  1  0.85508000  0.27445000  0.88263000  1
  O  O327  1  0.97211000  0.30212000  0.86287000  1
  O  O328  1  0.41367000  0.80702000  0.80971000  1
  O  O329  1  0.08465000  0.55533000  0.21948000  1
  O  O330  1  0.33585000  0.55533000  0.47068000  1
  O  O331  1  0.41367000  0.60396000  0.60665000  1
  O  O332  1  0.02755000  0.41937000  0.14492000  1
  O  O333  1  0.89076000  0.33001000  0.02789000  1
  O  O334  1  0.60357000  0.11688000  0.08251000  1
  O  O335  1  0.60734000  1.00000000  1.00000000  1
  O  O336  1  0.60665000  0.00269000  0.19298000  1
  O  O337  1  0.72555000  0.11737000  0.14492000  1
  O  O338  1  0.69788000  0.13713000  0.02789000  1
  O  O339  1  0.52106000  0.91749000  0.03437000  1
  O  O340  1  0.51331000  0.03437000  0.11688000  1
  O  O341  1  0.66999000  0.97211000  0.10924000  1
  O  O342  1  0.48669000  0.96563000  0.88312000  1
  O  O343  1  0.52932000  0.08465000  0.86517000  1
  O  O344  1  0.47894000  0.08251000  0.96563000  1
  O  O345  1  0.60396000  0.19029000  0.99731000  1
  O  O346  1  0.97245000  0.11737000  0.39182000  1
  O  O347  1  0.10924000  0.13713000  0.43925000  1
  O  O348  1  0.27445000  0.41937000  0.39182000  1
  O  O349  1  0.30212000  0.33001000  0.43925000  1
  O  O350  1  0.39643000  0.88312000  0.91749000  1
  O  O351  1  0.44467000  0.78052000  0.91535000  1
  O  O352  1  0.58063000  0.85508000  0.97245000  1
  O  O353  1  0.39335000  0.99731000  0.80702000  1
  O  O354  1  0.39643000  0.47894000  0.51331000  1
  O  O355  1  0.39266000  0.39266000  0.39266000  1
  O  O356  1  0.39335000  0.58633000  0.39604000  1
  O  O357  1  0.47894000  0.51331000  0.39643000  1
  O  O358  1  0.48669000  0.60357000  0.52106000  1
  O  O359  1  0.33001000  0.43925000  0.30212000  1
  O  O360  1  0.51331000  0.39643000  0.47894000  1
  O  O361  1  0.47068000  0.33585000  0.55533000  1
  O  O362  1  0.52106000  0.48669000  0.60357000  1
  O  O363  1  0.39604000  0.39335000  0.58633000  1
  O  O364  1  0.60357000  0.52106000  0.48669000  1
  O  O365  1  0.55533000  0.47068000  0.33585000  1
  O  O366  1  0.41937000  0.39182000  0.27445000  1
  O  O367  1  0.60665000  0.41367000  0.60396000  1
  O  O368  1  0.41937000  0.14492000  0.02755000  1
  O  O369  1  0.33001000  0.02789000  0.89076000  1
  O  O370  1  0.11737000  0.39182000  0.97245000  1
  O  O371  1  0.13713000  0.43925000  0.10924000  1
  O  O372  1  0.19298000  0.19029000  0.58633000  1
  O  O373  1  0.13483000  0.47068000  0.91535000  1
  O  O374  1  0.44467000  0.52932000  0.66415000  1
  O  O375  1  0.39604000  0.80971000  0.00269000  1
  O  O376  1  0.58063000  0.60818000  0.72555000  1
  O  O377  1  0.66999000  0.56075000  0.69788000  1
  O  O378  1  0.88263000  0.85508000  0.27445000  1
  O  O379  1  0.86287000  0.97211000  0.30212000  1
  O  O380  1  0.80702000  0.39335000  0.99731000  1
  O  O381  1  0.86517000  0.78052000  0.33585000  1
  O  O382  1  0.55533000  0.21948000  0.08465000  1
  O  O383  1  0.60396000  0.60665000  0.41367000  1
  O  O384  1  0.21948000  0.08465000  0.55533000  1
  O  O385  1  0.78052000  0.33585000  0.86517000  1
  O  O386  1  0.52932000  0.66415000  0.44467000  1
  O  O387  1  0.47068000  0.91535000  0.13483000  1
  O  O388  1  0.00000000  0.39266000  0.00000000  1
  O  O389  1  0.00000000  1.00000000  0.39266000  1
  O  O390  1  0.39266000  1.00000000  1.00000000  1
  O  O391  1  0.60734000  0.60734000  0.60734000  1
  Zr  Zr392  1  0.38506000  0.96454000  0.88648000  1
  Zr  Zr393  1  0.42052000  0.92194000  0.03546000  1
  Zr  Zr394  1  0.49858000  0.11352000  0.07806000  1
  Zr  Zr395  1  0.92194000  0.50142000  0.88648000  1
  Zr  Zr396  1  0.11352000  0.61494000  0.03546000  1
  Zr  Zr397  1  0.03546000  0.42052000  0.92194000  1
  Zr  Zr398  1  0.96454000  0.57948000  0.07806000  1
  Zr  Zr399  1  0.88648000  0.38506000  0.96454000  1
  Zr  Zr400  1  0.07806000  0.49858000  0.11352000  1
  Zr  Zr401  1  0.42052000  0.38506000  0.49858000  1
  Zr  Zr402  1  0.49858000  0.42052000  0.38506000  1
  Zr  Zr403  1  0.61494000  0.50142000  0.57948000  1
  Zr  Zr404  1  0.57948000  0.61494000  0.50142000  1
  Zr  Zr405  1  0.07806000  0.96454000  0.57948000  1
  Zr  Zr406  1  0.88648000  0.92194000  0.50142000  1
  Zr  Zr407  1  0.03546000  0.11352000  0.61494000  1
  Zr  Zr408  1  0.11352000  0.07806000  0.49858000  1
  Zr  Zr409  1  0.96454000  0.88648000  0.38506000  1
  Zr  Zr410  1  0.92194000  0.03546000  0.42052000  1
  Zr  Zr411  1  0.61494000  0.03546000  0.11352000  1
  Zr  Zr412  1  0.50142000  0.57948000  0.61494000  1
  Zr  Zr413  1  0.57948000  0.07806000  0.96454000  1
  Zr  Zr414  1  0.50142000  0.88648000  0.92194000  1
  Zr  Zr415  1  0.38506000  0.49858000  0.42052000  1
