# generated using pymatgen
data_Zr6Cu3H48C72N13O36
_symmetry_space_group_name_H-M   'P 1'
_cell_length_a   15.71860000
_cell_length_b   15.71860000
_cell_length_c   29.22000000
_cell_angle_alpha   90.00000000
_cell_angle_beta   90.00000000
_cell_angle_gamma   90.00000000
_symmetry_Int_Tables_number   1
_chemical_formula_structural   Zr6Cu3H48C72N13O36
_chemical_formula_sum   'Zr12 Cu6 H96 C144 N26 O72'
_cell_volume   7219.51355775
_cell_formula_units_Z   2
loop_
 _symmetry_equiv_pos_site_id
 _symmetry_equiv_pos_as_xyz
  1  'x, y, z'
loop_
 _atom_site_type_symbol
 _atom_site_label
 _atom_site_symmetry_multiplicity
 _atom_site_fract_x
 _atom_site_fract_y
 _atom_site_fract_z
 _atom_site_occupancy
  Zr  Zr0  1  0.53276000  0.34434000  0.50000000  1
  Zr  Zr1  1  0.03276000  0.84434000  0.00000000  1
  Zr  Zr2  1  0.46724000  0.65566000  0.50000000  1
  Zr  Zr3  1  0.96724000  0.15566000  0.00000000  1
  Zr  Zr4  1  0.65566000  0.53276000  0.50000000  1
  Zr  Zr5  1  0.15566000  0.03276000  0.00000000  1
  Zr  Zr6  1  0.34434000  0.46724000  0.50000000  1
  Zr  Zr7  1  0.84434000  0.96724000  0.00000000  1
  Zr  Zr8  1  0.50000000  0.50000000  0.58424000  1
  Zr  Zr9  1  0.00000000  0.00000000  0.08424000  1
  Zr  Zr10  1  0.50000000  0.50000000  0.41576000  1
  Zr  Zr11  1  0.00000000  0.00000000  0.91576000  1
  Cu  Cu12  1  0.00000000  0.00000000  0.50000000  1
  Cu  Cu13  1  0.50000000  0.50000000  0.00000000  1
  Cu  Cu14  1  0.50000000  0.00000000  0.25000000  1
  Cu  Cu15  1  0.00000000  0.50000000  0.25000000  1
  Cu  Cu16  1  0.50000000  0.00000000  0.75000000  1
  Cu  Cu17  1  0.00000000  0.50000000  0.75000000  1
  H  H18  1  0.16609000  0.19317000  0.59006000  1
  H  H19  1  0.15875000  0.03690000  0.55275000  1
  H  H20  1  0.20264000  0.21868000  0.45793000  1
  H  H21  1  0.03534000  0.19201000  0.47112000  1
  H  H22  1  0.53277000  0.13440000  0.39541000  1
  H  H23  1  0.52374000  0.04149000  0.34919000  1
  H  H24  1  0.53385000  0.29779000  0.29478000  1
  H  H25  1  0.52616000  0.19933000  0.25095000  1
  H  H26  1  0.22877000  0.93156000  0.18349000  1
  H  H27  1  0.32902000  0.92522000  0.22618000  1
  H  H28  1  0.33415000  0.13205000  0.12837000  1
  H  H29  1  0.42740000  0.12328000  0.17440000  1
  H  H30  1  0.13440000  0.46723000  0.39541000  1
  H  H31  1  0.04149000  0.47626000  0.34919000  1
  H  H32  1  0.29779000  0.46615000  0.29478000  1
  H  H33  1  0.19933000  0.47384000  0.25095000  1
  H  H34  1  0.92522000  0.67098000  0.22618000  1
  H  H35  1  0.93156000  0.77123000  0.18349000  1
  H  H36  1  0.13205000  0.66585000  0.12837000  1
  H  H37  1  0.12328000  0.57259000  0.17440000  1
  H  H38  1  0.21868000  0.79736000  0.45793000  1
  H  H39  1  0.19201000  0.96466000  0.47112000  1
  H  H40  1  0.03690000  0.84125000  0.55275000  1
  H  H41  1  0.19317000  0.83391000  0.59006000  1
  H  H42  1  0.03385000  0.79779000  0.79478000  1
  H  H43  1  0.02616000  0.69933000  0.75095000  1
  H  H44  1  0.03277000  0.63440000  0.89541000  1
  H  H45  1  0.02374000  0.54149000  0.84919000  1
  H  H46  1  0.96723000  0.36560000  0.89541000  1
  H  H47  1  0.97626000  0.45851000  0.84919000  1
  H  H48  1  0.96615000  0.20221000  0.79478000  1
  H  H49  1  0.97384000  0.30066000  0.75095000  1
  H  H50  1  0.17098000  0.57478000  0.72618000  1
  H  H51  1  0.27123000  0.56844000  0.68349000  1
  H  H52  1  0.07259000  0.37672000  0.67440000  1
  H  H53  1  0.16585000  0.36795000  0.62837000  1
  H  H54  1  0.36560000  0.03277000  0.89541000  1
  H  H55  1  0.45851000  0.02374000  0.84919000  1
  H  H56  1  0.20221000  0.03385000  0.79478000  1
  H  H57  1  0.30066000  0.02616000  0.75095000  1
  H  H58  1  0.72877000  0.43156000  0.68349000  1
  H  H59  1  0.82902000  0.42522000  0.72618000  1
  H  H60  1  0.83415000  0.63205000  0.62837000  1
  H  H61  1  0.92740000  0.62328000  0.67440000  1
  H  H62  1  0.69933000  0.97384000  0.75095000  1
  H  H63  1  0.79779000  0.96615000  0.79478000  1
  H  H64  1  0.63440000  0.96723000  0.89541000  1
  H  H65  1  0.54149000  0.97626000  0.84919000  1
  H  H66  1  0.80683000  0.16609000  0.59006000  1
  H  H67  1  0.96310000  0.15875000  0.55275000  1
  H  H68  1  0.78132000  0.20264000  0.45793000  1
  H  H69  1  0.80799000  0.03534000  0.47112000  1
  H  H70  1  0.70221000  0.53385000  0.29478000  1
  H  H71  1  0.86560000  0.53277000  0.39541000  1
  H  H72  1  0.80066000  0.52616000  0.25095000  1
  H  H73  1  0.95851000  0.52374000  0.34919000  1
  H  H74  1  0.79736000  0.78132000  0.45793000  1
  H  H75  1  0.96466000  0.80799000  0.47112000  1
  H  H76  1  0.83391000  0.80683000  0.59006000  1
  H  H77  1  0.84125000  0.96310000  0.55275000  1
  H  H78  1  0.87672000  0.42740000  0.17440000  1
  H  H79  1  0.86795000  0.33415000  0.12837000  1
  H  H80  1  0.07478000  0.32902000  0.22618000  1
  H  H81  1  0.06844000  0.22877000  0.18349000  1
  H  H82  1  0.67098000  0.07478000  0.22618000  1
  H  H83  1  0.77123000  0.06844000  0.18349000  1
  H  H84  1  0.57259000  0.87672000  0.17440000  1
  H  H85  1  0.66585000  0.86795000  0.12837000  1
  H  H86  1  0.66609000  0.69317000  0.09006000  1
  H  H87  1  0.65875000  0.53690000  0.05275000  1
  H  H88  1  0.70264000  0.71868000  0.95793000  1
  H  H89  1  0.53534000  0.69201000  0.97112000  1
  H  H90  1  0.30683000  0.66609000  0.09006000  1
  H  H91  1  0.28132000  0.70264000  0.95793000  1
  H  H92  1  0.46310000  0.65875000  0.05275000  1
  H  H93  1  0.30799000  0.53534000  0.97112000  1
  H  H94  1  0.42124000  0.39828000  0.92203000  1
  H  H95  1  0.25394000  0.37161000  0.93522000  1
  H  H96  1  0.38469000  0.37277000  0.05416000  1
  H  H97  1  0.37735000  0.21650000  0.01685000  1
  H  H98  1  0.60172000  0.42124000  0.92203000  1
  H  H99  1  0.62839000  0.25394000  0.93522000  1
  H  H100  1  0.78350000  0.37735000  0.01685000  1
  H  H101  1  0.62723000  0.38469000  0.05416000  1
  H  H102  1  0.37672000  0.92740000  0.67440000  1
  H  H103  1  0.36795000  0.83415000  0.62837000  1
  H  H104  1  0.56844000  0.72877000  0.68349000  1
  H  H105  1  0.57478000  0.82902000  0.72618000  1
  H  H106  1  0.62328000  0.07259000  0.67440000  1
  H  H107  1  0.63205000  0.16585000  0.62837000  1
  H  H108  1  0.43156000  0.27123000  0.68349000  1
  H  H109  1  0.42522000  0.17098000  0.72618000  1
  H  H110  1  0.47384000  0.80066000  0.25095000  1
  H  H111  1  0.46615000  0.70221000  0.29478000  1
  H  H112  1  0.46723000  0.86560000  0.39541000  1
  H  H113  1  0.47626000  0.95851000  0.34919000  1
  C  C114  1  0.53150000  0.30620000  0.38980000  1
  C  C115  1  0.53110000  0.23650000  0.35460000  1
  C  C116  1  0.49640000  0.24860000  0.31160000  1
  C  C117  1  0.49240000  0.17950000  0.28170000  1
  C  C118  1  0.55830000  0.09290000  0.33250000  1
  C  C119  1  0.56460000  0.15690000  0.36460000  1
  C  C120  1  0.70840000  0.26600000  0.53670000  1
  C  C121  1  0.77680000  0.20080000  0.52630000  1
  C  C122  1  0.90240000  0.12560000  0.55060000  1
  C  C123  1  0.83940000  0.18570000  0.55890000  1
  C  C124  1  0.84020000  0.09570000  0.47700000  1
  C  C125  1  0.77720000  0.15580000  0.48530000  1
  C  C126  1  0.03150000  0.80620000  0.88980000  1
  C  C127  1  0.03110000  0.73650000  0.85460000  1
  C  C128  1  0.99640000  0.74860000  0.81160000  1
  C  C129  1  0.99240000  0.67950000  0.78170000  1
  C  C130  1  0.05830000  0.59290000  0.83250000  1
  C  C131  1  0.06460000  0.65690000  0.86460000  1
  C  C132  1  0.20840000  0.76600000  0.03670000  1
  C  C133  1  0.27680000  0.70080000  0.02630000  1
  C  C134  1  0.40240000  0.62560000  0.05060000  1
  C  C135  1  0.33940000  0.68570000  0.05890000  1
  C  C136  1  0.34020000  0.59570000  0.97700000  1
  C  C137  1  0.27720000  0.65580000  0.98530000  1
  C  C138  1  0.46850000  0.69380000  0.38980000  1
  C  C139  1  0.46890000  0.76350000  0.35460000  1
  C  C140  1  0.50360000  0.75140000  0.31160000  1
  C  C141  1  0.50760000  0.82050000  0.28170000  1
  C  C142  1  0.44170000  0.90710000  0.33250000  1
  C  C143  1  0.43540000  0.84310000  0.36460000  1
  C  C144  1  0.29160000  0.73400000  0.53670000  1
  C  C145  1  0.22320000  0.79920000  0.52630000  1
  C  C146  1  0.09760000  0.87440000  0.55060000  1
  C  C147  1  0.16060000  0.81430000  0.55890000  1
  C  C148  1  0.15980000  0.90430000  0.47700000  1
  C  C149  1  0.22280000  0.84420000  0.48530000  1
  C  C150  1  0.69380000  0.53150000  0.38980000  1
  C  C151  1  0.76350000  0.53110000  0.35460000  1
  C  C152  1  0.75140000  0.49640000  0.31160000  1
  C  C153  1  0.82050000  0.49240000  0.28170000  1
  C  C154  1  0.90710000  0.55830000  0.33250000  1
  C  C155  1  0.84310000  0.56460000  0.36460000  1
  C  C156  1  0.73400000  0.70840000  0.53670000  1
  C  C157  1  0.79920000  0.77680000  0.52630000  1
  C  C158  1  0.87440000  0.90240000  0.55060000  1
  C  C159  1  0.81430000  0.83940000  0.55890000  1
  C  C160  1  0.90430000  0.84020000  0.47700000  1
  C  C161  1  0.84420000  0.77720000  0.48530000  1
  C  C162  1  0.19380000  0.03150000  0.88980000  1
  C  C163  1  0.26350000  0.03110000  0.85460000  1
  C  C164  1  0.25140000  0.99640000  0.81160000  1
  C  C165  1  0.32050000  0.99240000  0.78170000  1
  C  C166  1  0.40710000  0.05830000  0.83250000  1
  C  C167  1  0.34310000  0.06460000  0.86460000  1
  C  C168  1  0.30620000  0.46850000  0.38980000  1
  C  C169  1  0.23650000  0.46890000  0.35460000  1
  C  C170  1  0.24860000  0.50360000  0.31160000  1
  C  C171  1  0.17950000  0.50760000  0.28170000  1
  C  C172  1  0.09290000  0.44170000  0.33250000  1
  C  C173  1  0.15690000  0.43540000  0.36460000  1
  C  C174  1  0.26600000  0.29160000  0.53670000  1
  C  C175  1  0.20080000  0.22320000  0.52630000  1
  C  C176  1  0.12560000  0.09760000  0.55060000  1
  C  C177  1  0.18570000  0.16060000  0.55890000  1
  C  C178  1  0.09570000  0.15980000  0.47700000  1
  C  C179  1  0.15580000  0.22280000  0.48530000  1
  C  C180  1  0.76600000  0.79160000  0.03670000  1
  C  C181  1  0.70080000  0.72320000  0.02630000  1
  C  C182  1  0.62560000  0.59760000  0.05060000  1
  C  C183  1  0.68570000  0.66060000  0.05890000  1
  C  C184  1  0.59570000  0.65980000  0.97700000  1
  C  C185  1  0.65580000  0.72280000  0.98530000  1
  C  C186  1  0.46850000  0.69380000  0.61020000  1
  C  C187  1  0.46890000  0.76350000  0.64540000  1
  C  C188  1  0.50360000  0.75140000  0.68840000  1
  C  C189  1  0.50760000  0.82050000  0.71830000  1
  C  C190  1  0.44170000  0.90710000  0.66750000  1
  C  C191  1  0.43540000  0.84310000  0.63540000  1
  C  C192  1  0.96850000  0.19380000  0.11020000  1
  C  C193  1  0.96890000  0.26350000  0.14540000  1
  C  C194  1  0.00360000  0.25140000  0.18840000  1
  C  C195  1  0.00760000  0.32050000  0.21830000  1
  C  C196  1  0.94170000  0.40710000  0.16750000  1
  C  C197  1  0.93540000  0.34310000  0.13540000  1
  C  C198  1  0.79160000  0.23400000  0.96330000  1
  C  C199  1  0.72320000  0.29920000  0.97370000  1
  C  C200  1  0.59760000  0.37440000  0.94940000  1
  C  C201  1  0.66060000  0.31430000  0.94110000  1
  C  C202  1  0.65980000  0.40430000  0.02300000  1
  C  C203  1  0.72280000  0.34420000  0.01470000  1
  C  C204  1  0.53150000  0.30620000  0.61020000  1
  C  C205  1  0.53110000  0.23650000  0.64540000  1
  C  C206  1  0.49640000  0.24860000  0.68840000  1
  C  C207  1  0.49240000  0.17950000  0.71830000  1
  C  C208  1  0.55830000  0.09290000  0.66750000  1
  C  C209  1  0.56460000  0.15690000  0.63540000  1
  C  C210  1  0.03150000  0.80620000  0.11020000  1
  C  C211  1  0.03110000  0.73650000  0.14540000  1
  C  C212  1  0.99640000  0.74860000  0.18840000  1
  C  C213  1  0.99240000  0.67950000  0.21830000  1
  C  C214  1  0.05830000  0.59290000  0.16750000  1
  C  C215  1  0.06460000  0.65690000  0.13540000  1
  C  C216  1  0.30620000  0.46850000  0.61020000  1
  C  C217  1  0.23650000  0.46890000  0.64540000  1
  C  C218  1  0.24860000  0.50360000  0.68840000  1
  C  C219  1  0.17950000  0.50760000  0.71830000  1
  C  C220  1  0.09290000  0.44170000  0.66750000  1
  C  C221  1  0.15690000  0.43540000  0.63540000  1
  C  C222  1  0.80620000  0.96850000  0.11020000  1
  C  C223  1  0.73650000  0.96890000  0.14540000  1
  C  C224  1  0.74860000  0.00360000  0.18840000  1
  C  C225  1  0.67950000  0.00760000  0.21830000  1
  C  C226  1  0.59290000  0.94170000  0.16750000  1
  C  C227  1  0.65690000  0.93540000  0.13540000  1
  C  C228  1  0.69380000  0.53150000  0.61020000  1
  C  C229  1  0.76350000  0.53110000  0.64540000  1
  C  C230  1  0.75140000  0.49640000  0.68840000  1
  C  C231  1  0.82050000  0.49240000  0.71830000  1
  C  C232  1  0.90710000  0.55830000  0.66750000  1
  C  C233  1  0.84310000  0.56460000  0.63540000  1
  C  C234  1  0.19380000  0.03150000  0.11020000  1
  C  C235  1  0.26350000  0.03110000  0.14540000  1
  C  C236  1  0.25140000  0.99640000  0.18840000  1
  C  C237  1  0.32050000  0.99240000  0.21830000  1
  C  C238  1  0.40710000  0.05830000  0.16750000  1
  C  C239  1  0.34310000  0.06460000  0.13540000  1
  C  C240  1  0.23400000  0.20840000  0.96330000  1
  C  C241  1  0.29920000  0.27680000  0.97370000  1
  C  C242  1  0.37440000  0.40240000  0.94940000  1
  C  C243  1  0.31430000  0.33940000  0.94110000  1
  C  C244  1  0.40430000  0.34020000  0.02300000  1
  C  C245  1  0.34420000  0.27720000  0.01470000  1
  C  C246  1  0.96850000  0.19380000  0.88980000  1
  C  C247  1  0.96890000  0.26350000  0.85460000  1
  C  C248  1  0.00360000  0.25140000  0.81160000  1
  C  C249  1  0.00760000  0.32050000  0.78170000  1
  C  C250  1  0.94170000  0.40710000  0.83250000  1
  C  C251  1  0.93540000  0.34310000  0.86460000  1
  C  C252  1  0.80620000  0.96850000  0.88980000  1
  C  C253  1  0.73650000  0.96890000  0.85460000  1
  C  C254  1  0.74860000  0.00360000  0.81160000  1
  C  C255  1  0.67950000  0.00760000  0.78170000  1
  C  C256  1  0.59290000  0.94170000  0.83250000  1
  C  C257  1  0.65690000  0.93540000  0.86460000  1
  N  N258  1  0.90280000  0.08060000  0.50960000  1
  N  N259  1  0.52170000  0.10280000  0.29160000  1
  N  N260  1  0.40280000  0.58060000  0.00960000  1
  N  N261  1  0.02170000  0.60280000  0.79160000  1
  N  N262  1  0.09720000  0.91940000  0.50960000  1
  N  N263  1  0.47830000  0.89720000  0.29160000  1
  N  N264  1  0.91940000  0.90280000  0.50960000  1
  N  N265  1  0.89720000  0.52170000  0.29160000  1
  N  N266  1  0.39720000  0.02170000  0.79160000  1
  N  N267  1  0.08060000  0.09720000  0.50960000  1
  N  N268  1  0.10280000  0.47830000  0.29160000  1
  N  N269  1  0.58060000  0.59720000  0.00960000  1
  N  N270  1  0.47830000  0.89720000  0.70840000  1
  N  N271  1  0.59720000  0.41940000  0.99040000  1
  N  N272  1  0.97830000  0.39720000  0.20840000  1
  N  N273  1  0.52170000  0.10280000  0.70840000  1
  N  N274  1  0.02170000  0.60280000  0.20840000  1
  N  N275  1  0.10280000  0.47830000  0.70840000  1
  N  N276  1  0.60280000  0.97830000  0.20840000  1
  N  N277  1  0.89720000  0.52170000  0.70840000  1
  N  N278  1  0.41940000  0.40280000  0.99040000  1
  N  N279  1  0.39720000  0.02170000  0.20840000  1
  N  N280  1  0.97830000  0.39720000  0.79160000  1
  N  N281  1  0.60280000  0.97830000  0.79160000  1
  N  N282  1  0.09720000  0.91940000  0.49040000  1
  N  N283  1  0.91940000  0.90280000  0.49040000  1
  O  O284  1  0.43800000  0.40540000  0.54180000  1
  O  O285  1  0.54380000  0.28280000  0.43010000  1
  O  O286  1  0.51940000  0.38100000  0.37595000  1
  O  O287  1  0.71380000  0.30670000  0.57350000  1
  O  O288  1  0.93800000  0.90540000  0.04180000  1
  O  O289  1  0.04380000  0.78280000  0.93010000  1
  O  O290  1  0.01940000  0.88100000  0.87595000  1
  O  O291  1  0.21380000  0.80670000  0.07350000  1
  O  O292  1  0.56200000  0.59460000  0.54180000  1
  O  O293  1  0.45620000  0.71720000  0.43010000  1
  O  O294  1  0.48060000  0.61900000  0.37595000  1
  O  O295  1  0.28620000  0.69330000  0.57350000  1
  O  O296  1  0.06200000  0.09460000  0.04180000  1
  O  O297  1  0.59460000  0.43800000  0.54180000  1
  O  O298  1  0.71720000  0.54380000  0.43010000  1
  O  O299  1  0.61900000  0.51940000  0.37595000  1
  O  O300  1  0.69330000  0.71380000  0.57350000  1
  O  O301  1  0.09460000  0.93800000  0.04180000  1
  O  O302  1  0.21720000  0.04380000  0.93010000  1
  O  O303  1  0.11900000  0.01940000  0.87595000  1
  O  O304  1  0.40540000  0.56200000  0.54180000  1
  O  O305  1  0.28280000  0.45620000  0.43010000  1
  O  O306  1  0.38100000  0.48060000  0.37595000  1
  O  O307  1  0.30670000  0.28620000  0.57350000  1
  O  O308  1  0.90540000  0.06200000  0.04180000  1
  O  O309  1  0.80670000  0.78620000  0.07350000  1
  O  O310  1  0.56200000  0.59460000  0.45820000  1
  O  O311  1  0.45620000  0.71720000  0.56990000  1
  O  O312  1  0.48060000  0.61900000  0.62405000  1
  O  O313  1  0.06200000  0.09460000  0.95820000  1
  O  O314  1  0.95620000  0.21720000  0.06990000  1
  O  O315  1  0.98060000  0.11900000  0.12405000  1
  O  O316  1  0.78620000  0.19330000  0.92650000  1
  O  O317  1  0.43800000  0.40540000  0.45820000  1
  O  O318  1  0.54380000  0.28280000  0.56990000  1
  O  O319  1  0.51940000  0.38100000  0.62405000  1
  O  O320  1  0.04380000  0.78280000  0.06990000  1
  O  O321  1  0.01940000  0.88100000  0.12405000  1
  O  O322  1  0.40540000  0.56200000  0.45820000  1
  O  O323  1  0.28280000  0.45620000  0.56990000  1
  O  O324  1  0.38100000  0.48060000  0.62405000  1
  O  O325  1  0.78280000  0.95620000  0.06990000  1
  O  O326  1  0.88100000  0.98060000  0.12405000  1
  O  O327  1  0.59460000  0.43800000  0.45820000  1
  O  O328  1  0.71720000  0.54380000  0.56990000  1
  O  O329  1  0.61900000  0.51940000  0.62405000  1
  O  O330  1  0.21720000  0.04380000  0.06990000  1
  O  O331  1  0.11900000  0.01940000  0.12405000  1
  O  O332  1  0.19330000  0.21380000  0.92650000  1
  O  O333  1  0.45230000  0.23220000  0.50000000  1
  O  O334  1  0.65150000  0.27390000  0.50000000  1
  O  O335  1  0.15150000  0.77390000  0.00000000  1
  O  O336  1  0.54770000  0.76780000  0.50000000  1
  O  O337  1  0.34850000  0.72610000  0.50000000  1
  O  O338  1  0.84850000  0.22610000  0.00000000  1
  O  O339  1  0.76780000  0.45230000  0.50000000  1
  O  O340  1  0.72610000  0.65150000  0.50000000  1
  O  O341  1  0.22610000  0.15150000  0.00000000  1
  O  O342  1  0.23220000  0.54770000  0.50000000  1
  O  O343  1  0.27390000  0.34850000  0.50000000  1
  O  O344  1  0.77390000  0.84850000  0.00000000  1
  O  O345  1  0.95620000  0.21720000  0.93010000  1
  O  O346  1  0.98060000  0.11900000  0.87595000  1
  O  O347  1  0.78280000  0.95620000  0.93010000  1
  O  O348  1  0.88100000  0.98060000  0.87595000  1
  O  O349  1  0.93800000  0.90540000  0.95820000  1
  O  O350  1  0.90540000  0.06200000  0.95820000  1
  O  O351  1  0.09460000  0.93800000  0.95820000  1
  O  O352  1  0.95230000  0.73220000  0.00000000  1
  O  O353  1  0.04770000  0.26780000  0.00000000  1
  O  O354  1  0.26780000  0.95230000  0.00000000  1
  O  O355  1  0.73220000  0.04770000  0.00000000  1
