# generated using pymatgen
data_Zr3Mo2H22C44(SO4)4
_symmetry_space_group_name_H-M   'P 1'
_cell_length_a   16.54200000
_cell_length_b   39.25400000
_cell_length_c   39.25400000
_cell_angle_alpha   120.00000000
_cell_angle_beta   90.00000000
_cell_angle_gamma   90.00000000
_symmetry_Int_Tables_number   1
_chemical_formula_structural   Zr3Mo2H22C44(SO4)4
_chemical_formula_sum   'Zr18 Mo12 H132 C264 S24 O96'
_cell_volume   22074.27681938
_cell_formula_units_Z   6
loop_
 _symmetry_equiv_pos_site_id
 _symmetry_equiv_pos_as_xyz
  1  'x, y, z'
loop_
 _atom_site_type_symbol
 _atom_site_label
 _atom_site_symmetry_multiplicity
 _atom_site_fract_x
 _atom_site_fract_y
 _atom_site_fract_z
 _atom_site_occupancy
  Zr  Zr0  1  0.89333000  0.00000000  0.45491000  1
  Zr  Zr1  1  0.89333000  0.45491000  1.00000000  1
  Zr  Zr2  1  0.89333000  0.54509000  0.54509000  1
  Zr  Zr3  1  0.89333000  0.00000000  0.54509000  1
  Zr  Zr4  1  0.89333000  0.54509000  1.00000000  1
  Zr  Zr5  1  0.89333000  0.45491000  0.45491000  1
  Zr  Zr6  1  0.10667000  0.54509000  0.54509000  1
  Zr  Zr7  1  0.10667000  0.45491000  1.00000000  1
  Zr  Zr8  1  0.10667000  0.00000000  0.45491000  1
  Zr  Zr9  1  0.10667000  0.45491000  0.45491000  1
  Zr  Zr10  1  0.10667000  0.54509000  1.00000000  1
  Zr  Zr11  1  0.10667000  0.00000000  0.54509000  1
  Zr  Zr12  1  1.00000000  0.92704000  0.46352000  1
  Zr  Zr13  1  0.00000000  0.53648000  0.07296000  1
  Zr  Zr14  1  1.00000000  0.53648000  0.46352000  1
  Zr  Zr15  1  0.00000000  0.07296000  0.53648000  1
  Zr  Zr16  1  0.00000000  0.46352000  0.92704000  1
  Zr  Zr17  1  0.00000000  0.46352000  0.53648000  1
  Mo  Mo18  1  0.74900000  0.02450000  0.51225000  1
  Mo  Mo19  1  0.74900000  0.48775000  0.97550000  1
  Mo  Mo20  1  0.74900000  0.48775000  0.51225000  1
  Mo  Mo21  1  0.25100000  0.51225000  0.48775000  1
  Mo  Mo22  1  0.25100000  0.51225000  0.02450000  1
  Mo  Mo23  1  0.25100000  0.97550000  0.48775000  1
  Mo  Mo24  1  0.00000000  0.61570000  0.03550000  1
  Mo  Mo25  1  0.00000000  0.00000000  0.38760000  1
  Mo  Mo26  1  0.00000000  0.38760000  1.00000000  1
  Mo  Mo27  1  0.00000000  0.61240000  0.61240000  1
  Mo  Mo28  1  1.00000000  0.00000000  0.61240000  1
  Mo  Mo29  1  0.00000000  0.38760000  0.38760000  1
  H  H30  1  0.75064000  0.91278000  0.35282000  1
  H  H31  1  0.67233000  0.86310000  0.30506000  1
  H  H32  1  0.78511000  0.78208000  0.31940000  1
  H  H33  1  0.86231000  0.83061000  0.36905000  1
  H  H34  1  0.57127000  0.83668000  0.33260000  1
  H  H35  1  0.75064000  0.44004000  0.08722000  1
  H  H36  1  0.67233000  0.44196000  0.13690000  1
  H  H37  1  0.78511000  0.53732000  0.21792000  1
  H  H38  1  0.86231000  0.53844000  0.16939000  1
  H  H39  1  0.57127000  0.49592000  0.16332000  1
  H  H40  1  0.75064000  0.64718000  0.55996000  1
  H  H41  1  0.67233000  0.69494000  0.55804000  1
  H  H42  1  0.78511000  0.68060000  0.46268000  1
  H  H43  1  0.86231000  0.63095000  0.46156000  1
  H  H44  1  0.57127000  0.66740000  0.50408000  1
  H  H45  1  0.75064000  0.08722000  0.64718000  1
  H  H46  1  0.67233000  0.13690000  0.69494000  1
  H  H47  1  0.78511000  0.21792000  0.68060000  1
  H  H48  1  0.86231000  0.16939000  0.63095000  1
  H  H49  1  0.57127000  0.16332000  0.66740000  1
  H  H50  1  0.75064000  0.55996000  0.91278000  1
  H  H51  1  0.67233000  0.55804000  0.86310000  1
  H  H52  1  0.78511000  0.46268000  0.78208000  1
  H  H53  1  0.86231000  0.46156000  0.83061000  1
  H  H54  1  0.57127000  0.50408000  0.83668000  1
  H  H55  1  0.75064000  0.35282000  0.44004000  1
  H  H56  1  0.67233000  0.30506000  0.44196000  1
  H  H57  1  0.78511000  0.31940000  0.53732000  1
  H  H58  1  0.86231000  0.36905000  0.53844000  1
  H  H59  1  0.57127000  0.33260000  0.49592000  1
  H  H60  1  0.24936000  0.55996000  0.64718000  1
  H  H61  1  0.32767000  0.55804000  0.69494000  1
  H  H62  1  0.21489000  0.46268000  0.68060000  1
  H  H63  1  0.13769000  0.46156000  0.63095000  1
  H  H64  1  0.42873000  0.50408000  0.66740000  1
  H  H65  1  0.24936000  0.35282000  0.91278000  1
  H  H66  1  0.32767000  0.30506000  0.86310000  1
  H  H67  1  0.21489000  0.31940000  0.78208000  1
  H  H68  1  0.13769000  0.36905000  0.83061000  1
  H  H69  1  0.42873000  0.33260000  0.83668000  1
  H  H70  1  0.24936000  0.08722000  0.44004000  1
  H  H71  1  0.32767000  0.13690000  0.44196000  1
  H  H72  1  0.21489000  0.21792000  0.53732000  1
  H  H73  1  0.13769000  0.16939000  0.53844000  1
  H  H74  1  0.42873000  0.16332000  0.49592000  1
  H  H75  1  0.24936000  0.44004000  0.35282000  1
  H  H76  1  0.32767000  0.44196000  0.30506000  1
  H  H77  1  0.21489000  0.53732000  0.31940000  1
  H  H78  1  0.13769000  0.53844000  0.36905000  1
  H  H79  1  0.42873000  0.49592000  0.33260000  1
  H  H80  1  0.24936000  0.64718000  0.08722000  1
  H  H81  1  0.32767000  0.69494000  0.13690000  1
  H  H82  1  0.21489000  0.68060000  0.21792000  1
  H  H83  1  0.13769000  0.63095000  0.16939000  1
  H  H84  1  0.42873000  0.66740000  0.16332000  1
  H  H85  1  0.24936000  0.91278000  0.55996000  1
  H  H86  1  0.32767000  0.86310000  0.55804000  1
  H  H87  1  0.21489000  0.78208000  0.46268000  1
  H  H88  1  0.13769000  0.83061000  0.46156000  1
  H  H89  1  0.42873000  0.83668000  0.50408000  1
  H  H90  1  0.24936000  0.08722000  0.64718000  1
  H  H91  1  0.32767000  0.13690000  0.69494000  1
  H  H92  1  0.21489000  0.21792000  0.68060000  1
  H  H93  1  0.13769000  0.16939000  0.63095000  1
  H  H94  1  0.42873000  0.16332000  0.66740000  1
  H  H95  1  0.24936000  0.55996000  0.91278000  1
  H  H96  1  0.32767000  0.55804000  0.86310000  1
  H  H97  1  0.21489000  0.46268000  0.78208000  1
  H  H98  1  0.13769000  0.46156000  0.83061000  1
  H  H99  1  0.42873000  0.50408000  0.83668000  1
  H  H100  1  0.24936000  0.35282000  0.44004000  1
  H  H101  1  0.32767000  0.30506000  0.44196000  1
  H  H102  1  0.21489000  0.31940000  0.53732000  1
  H  H103  1  0.13769000  0.36905000  0.53844000  1
  H  H104  1  0.42873000  0.33260000  0.49592000  1
  H  H105  1  0.24936000  0.91278000  0.35282000  1
  H  H106  1  0.32767000  0.86310000  0.30506000  1
  H  H107  1  0.21489000  0.78208000  0.31940000  1
  H  H108  1  0.13769000  0.83061000  0.36905000  1
  H  H109  1  0.42873000  0.83668000  0.33260000  1
  H  H110  1  0.24936000  0.44004000  0.08722000  1
  H  H111  1  0.32767000  0.44196000  0.13690000  1
  H  H112  1  0.21489000  0.53732000  0.21792000  1
  H  H113  1  0.13769000  0.53844000  0.16939000  1
  H  H114  1  0.42873000  0.49592000  0.16332000  1
  H  H115  1  0.24936000  0.64718000  0.55996000  1
  H  H116  1  0.32767000  0.69494000  0.55804000  1
  H  H117  1  0.21489000  0.68060000  0.46268000  1
  H  H118  1  0.13769000  0.63095000  0.46156000  1
  H  H119  1  0.42873000  0.66740000  0.50408000  1
  H  H120  1  0.75064000  0.44004000  0.35282000  1
  H  H121  1  0.67233000  0.44196000  0.30506000  1
  H  H122  1  0.78511000  0.53732000  0.31940000  1
  H  H123  1  0.86231000  0.53844000  0.36905000  1
  H  H124  1  0.57127000  0.49592000  0.33260000  1
  H  H125  1  0.75064000  0.64718000  0.08722000  1
  H  H126  1  0.67233000  0.69494000  0.13690000  1
  H  H127  1  0.78511000  0.68060000  0.21792000  1
  H  H128  1  0.86231000  0.63095000  0.16939000  1
  H  H129  1  0.57127000  0.66740000  0.16332000  1
  H  H130  1  0.75064000  0.91278000  0.55996000  1
  H  H131  1  0.67233000  0.86310000  0.55804000  1
  H  H132  1  0.78511000  0.78208000  0.46268000  1
  H  H133  1  0.86231000  0.83061000  0.46156000  1
  H  H134  1  0.57127000  0.83668000  0.50408000  1
  H  H135  1  0.75064000  0.55996000  0.64718000  1
  H  H136  1  0.67233000  0.55804000  0.69494000  1
  H  H137  1  0.78511000  0.46268000  0.68060000  1
  H  H138  1  0.86231000  0.46156000  0.63095000  1
  H  H139  1  0.57127000  0.50408000  0.66740000  1
  H  H140  1  0.75064000  0.35282000  0.91278000  1
  H  H141  1  0.67233000  0.30506000  0.86310000  1
  H  H142  1  0.78511000  0.31940000  0.78208000  1
  H  H143  1  0.86231000  0.36905000  0.83061000  1
  H  H144  1  0.57127000  0.33260000  0.83668000  1
  H  H145  1  0.75064000  0.08722000  0.44004000  1
  H  H146  1  0.67233000  0.13690000  0.44196000  1
  H  H147  1  0.78511000  0.21792000  0.53732000  1
  H  H148  1  0.86231000  0.16939000  0.53844000  1
  H  H149  1  0.57127000  0.16332000  0.49592000  1
  H  H150  1  0.76695000  0.75534000  0.24467000  1
  H  H151  1  0.76695000  0.48933000  0.24467000  1
  H  H152  1  0.76695000  0.75534000  0.51068000  1
  H  H153  1  0.76695000  0.24466000  0.75533000  1
  H  H154  1  0.76695000  0.51067000  0.75533000  1
  H  H155  1  0.76695000  0.24466000  0.48932000  1
  H  H156  1  0.23305000  0.51067000  0.75533000  1
  H  H157  1  0.23305000  0.24466000  0.75533000  1
  H  H158  1  0.23305000  0.24466000  0.48932000  1
  H  H159  1  0.23305000  0.48933000  0.24467000  1
  H  H160  1  0.23305000  0.75534000  0.24467000  1
  H  H161  1  0.23305000  0.75534000  0.51068000  1
  C  C162  1  0.86640000  0.90590000  0.39800000  1
  C  C163  1  0.81450000  0.87630000  0.36680000  1
  C  C164  1  0.75730000  0.88680000  0.34680000  1
  C  C165  1  0.71150000  0.85650000  0.31780000  1
  C  C166  1  0.72020000  0.81760000  0.30660000  1
  C  C167  1  0.77760000  0.80820000  0.32620000  1
  C  C168  1  0.82410000  0.83750000  0.35620000  1
  C  C169  1  0.67460000  0.78530000  0.27410000  1
  C  C170  1  0.59100000  0.78650000  0.27550000  1
  C  C171  1  0.54350000  0.81750000  0.31080000  1
  C  C172  1  0.86640000  0.49210000  0.09410000  1
  C  C173  1  0.81450000  0.49050000  0.12370000  1
  C  C174  1  0.75730000  0.46000000  0.11320000  1
  C  C175  1  0.71150000  0.46130000  0.14350000  1
  C  C176  1  0.72020000  0.48900000  0.18240000  1
  C  C177  1  0.77760000  0.51800000  0.19180000  1
  C  C178  1  0.82410000  0.51870000  0.16250000  1
  C  C179  1  0.67460000  0.48880000  0.21470000  1
  C  C180  1  0.59100000  0.48900000  0.21350000  1
  C  C181  1  0.54350000  0.49330000  0.18250000  1
  C  C182  1  0.86640000  0.60200000  0.50790000  1
  C  C183  1  0.81450000  0.63320000  0.50950000  1
  C  C184  1  0.75730000  0.65320000  0.54000000  1
  C  C185  1  0.71150000  0.68220000  0.53870000  1
  C  C186  1  0.72020000  0.69340000  0.51100000  1
  C  C187  1  0.77760000  0.67380000  0.48200000  1
  C  C188  1  0.82410000  0.64380000  0.48130000  1
  C  C189  1  0.67460000  0.72590000  0.51120000  1
  C  C190  1  0.59100000  0.72450000  0.51100000  1
  C  C191  1  0.54350000  0.68920000  0.50670000  1
  C  C192  1  0.86640000  0.09410000  0.60200000  1
  C  C193  1  0.81450000  0.12370000  0.63320000  1
  C  C194  1  0.75730000  0.11320000  0.65320000  1
  C  C195  1  0.71150000  0.14350000  0.68220000  1
  C  C196  1  0.72020000  0.18240000  0.69340000  1
  C  C197  1  0.77760000  0.19180000  0.67380000  1
  C  C198  1  0.82410000  0.16250000  0.64380000  1
  C  C199  1  0.67460000  0.21470000  0.72590000  1
  C  C200  1  0.59100000  0.21350000  0.72450000  1
  C  C201  1  0.54350000  0.18250000  0.68920000  1
  C  C202  1  0.86640000  0.50790000  0.90590000  1
  C  C203  1  0.81450000  0.50950000  0.87630000  1
  C  C204  1  0.75730000  0.54000000  0.88680000  1
  C  C205  1  0.71150000  0.53870000  0.85650000  1
  C  C206  1  0.72020000  0.51100000  0.81760000  1
  C  C207  1  0.77760000  0.48200000  0.80820000  1
  C  C208  1  0.82410000  0.48130000  0.83750000  1
  C  C209  1  0.67460000  0.51120000  0.78530000  1
  C  C210  1  0.59100000  0.51100000  0.78650000  1
  C  C211  1  0.54350000  0.50670000  0.81750000  1
  C  C212  1  0.86640000  0.39800000  0.49210000  1
  C  C213  1  0.81450000  0.36680000  0.49050000  1
  C  C214  1  0.75730000  0.34680000  0.46000000  1
  C  C215  1  0.71150000  0.31780000  0.46130000  1
  C  C216  1  0.72020000  0.30660000  0.48900000  1
  C  C217  1  0.77760000  0.32620000  0.51800000  1
  C  C218  1  0.82410000  0.35620000  0.51870000  1
  C  C219  1  0.67460000  0.27410000  0.48880000  1
  C  C220  1  0.59100000  0.27550000  0.48900000  1
  C  C221  1  0.54350000  0.31080000  0.49330000  1
  C  C222  1  0.13360000  0.50790000  0.60200000  1
  C  C223  1  0.18550000  0.50950000  0.63320000  1
  C  C224  1  0.24270000  0.54000000  0.65320000  1
  C  C225  1  0.28850000  0.53870000  0.68220000  1
  C  C226  1  0.27980000  0.51100000  0.69340000  1
  C  C227  1  0.22240000  0.48200000  0.67380000  1
  C  C228  1  0.17590000  0.48130000  0.64380000  1
  C  C229  1  0.32540000  0.51120000  0.72590000  1
  C  C230  1  0.40900000  0.51100000  0.72450000  1
  C  C231  1  0.45650000  0.50670000  0.68920000  1
  C  C232  1  0.13360000  0.39800000  0.90590000  1
  C  C233  1  0.18550000  0.36680000  0.87630000  1
  C  C234  1  0.24270000  0.34680000  0.88680000  1
  C  C235  1  0.28850000  0.31780000  0.85650000  1
  C  C236  1  0.27980000  0.30660000  0.81760000  1
  C  C237  1  0.22240000  0.32620000  0.80820000  1
  C  C238  1  0.17590000  0.35620000  0.83750000  1
  C  C239  1  0.32540000  0.27410000  0.78530000  1
  C  C240  1  0.40900000  0.27550000  0.78650000  1
  C  C241  1  0.45650000  0.31080000  0.81750000  1
  C  C242  1  0.13360000  0.09410000  0.49210000  1
  C  C243  1  0.18550000  0.12370000  0.49050000  1
  C  C244  1  0.24270000  0.11320000  0.46000000  1
  C  C245  1  0.28850000  0.14350000  0.46130000  1
  C  C246  1  0.27980000  0.18240000  0.48900000  1
  C  C247  1  0.22240000  0.19180000  0.51800000  1
  C  C248  1  0.17590000  0.16250000  0.51870000  1
  C  C249  1  0.32540000  0.21470000  0.48880000  1
  C  C250  1  0.40900000  0.21350000  0.48900000  1
  C  C251  1  0.45650000  0.18250000  0.49330000  1
  C  C252  1  0.13360000  0.49210000  0.39800000  1
  C  C253  1  0.18550000  0.49050000  0.36680000  1
  C  C254  1  0.24270000  0.46000000  0.34680000  1
  C  C255  1  0.28850000  0.46130000  0.31780000  1
  C  C256  1  0.27980000  0.48900000  0.30660000  1
  C  C257  1  0.22240000  0.51800000  0.32620000  1
  C  C258  1  0.17590000  0.51870000  0.35620000  1
  C  C259  1  0.32540000  0.48880000  0.27410000  1
  C  C260  1  0.40900000  0.48900000  0.27550000  1
  C  C261  1  0.45650000  0.49330000  0.31080000  1
  C  C262  1  0.13360000  0.60200000  0.09410000  1
  C  C263  1  0.18550000  0.63320000  0.12370000  1
  C  C264  1  0.24270000  0.65320000  0.11320000  1
  C  C265  1  0.28850000  0.68220000  0.14350000  1
  C  C266  1  0.27980000  0.69340000  0.18240000  1
  C  C267  1  0.22240000  0.67380000  0.19180000  1
  C  C268  1  0.17590000  0.64380000  0.16250000  1
  C  C269  1  0.32540000  0.72590000  0.21470000  1
  C  C270  1  0.40900000  0.72450000  0.21350000  1
  C  C271  1  0.45650000  0.68920000  0.18250000  1
  C  C272  1  0.13360000  0.90590000  0.50790000  1
  C  C273  1  0.18550000  0.87630000  0.50950000  1
  C  C274  1  0.24270000  0.88680000  0.54000000  1
  C  C275  1  0.28850000  0.85650000  0.53870000  1
  C  C276  1  0.27980000  0.81760000  0.51100000  1
  C  C277  1  0.22240000  0.80820000  0.48200000  1
  C  C278  1  0.17590000  0.83750000  0.48130000  1
  C  C279  1  0.32540000  0.78530000  0.51120000  1
  C  C280  1  0.40900000  0.78650000  0.51100000  1
  C  C281  1  0.45650000  0.81750000  0.50670000  1
  C  C282  1  0.13360000  0.09410000  0.60200000  1
  C  C283  1  0.18550000  0.12370000  0.63320000  1
  C  C284  1  0.24270000  0.11320000  0.65320000  1
  C  C285  1  0.28850000  0.14350000  0.68220000  1
  C  C286  1  0.27980000  0.18240000  0.69340000  1
  C  C287  1  0.22240000  0.19180000  0.67380000  1
  C  C288  1  0.17590000  0.16250000  0.64380000  1
  C  C289  1  0.32540000  0.21470000  0.72590000  1
  C  C290  1  0.40900000  0.21350000  0.72450000  1
  C  C291  1  0.45650000  0.18250000  0.68920000  1
  C  C292  1  0.13360000  0.50790000  0.90590000  1
  C  C293  1  0.18550000  0.50950000  0.87630000  1
  C  C294  1  0.24270000  0.54000000  0.88680000  1
  C  C295  1  0.28850000  0.53870000  0.85650000  1
  C  C296  1  0.27980000  0.51100000  0.81760000  1
  C  C297  1  0.22240000  0.48200000  0.80820000  1
  C  C298  1  0.17590000  0.48130000  0.83750000  1
  C  C299  1  0.32540000  0.51120000  0.78530000  1
  C  C300  1  0.40900000  0.51100000  0.78650000  1
  C  C301  1  0.45650000  0.50670000  0.81750000  1
  C  C302  1  0.13360000  0.39800000  0.49210000  1
  C  C303  1  0.18550000  0.36680000  0.49050000  1
  C  C304  1  0.24270000  0.34680000  0.46000000  1
  C  C305  1  0.28850000  0.31780000  0.46130000  1
  C  C306  1  0.27980000  0.30660000  0.48900000  1
  C  C307  1  0.22240000  0.32620000  0.51800000  1
  C  C308  1  0.17590000  0.35620000  0.51870000  1
  C  C309  1  0.32540000  0.27410000  0.48880000  1
  C  C310  1  0.40900000  0.27550000  0.48900000  1
  C  C311  1  0.45650000  0.31080000  0.49330000  1
  C  C312  1  0.13360000  0.90590000  0.39800000  1
  C  C313  1  0.18550000  0.87630000  0.36680000  1
  C  C314  1  0.24270000  0.88680000  0.34680000  1
  C  C315  1  0.28850000  0.85650000  0.31780000  1
  C  C316  1  0.27980000  0.81760000  0.30660000  1
  C  C317  1  0.22240000  0.80820000  0.32620000  1
  C  C318  1  0.17590000  0.83750000  0.35620000  1
  C  C319  1  0.32540000  0.78530000  0.27410000  1
  C  C320  1  0.40900000  0.78650000  0.27550000  1
  C  C321  1  0.45650000  0.81750000  0.31080000  1
  C  C322  1  0.13360000  0.49210000  0.09410000  1
  C  C323  1  0.18550000  0.49050000  0.12370000  1
  C  C324  1  0.24270000  0.46000000  0.11320000  1
  C  C325  1  0.28850000  0.46130000  0.14350000  1
  C  C326  1  0.27980000  0.48900000  0.18240000  1
  C  C327  1  0.22240000  0.51800000  0.19180000  1
  C  C328  1  0.17590000  0.51870000  0.16250000  1
  C  C329  1  0.32540000  0.48880000  0.21470000  1
  C  C330  1  0.40900000  0.48900000  0.21350000  1
  C  C331  1  0.45650000  0.49330000  0.18250000  1
  C  C332  1  0.13360000  0.60200000  0.50790000  1
  C  C333  1  0.18550000  0.63320000  0.50950000  1
  C  C334  1  0.24270000  0.65320000  0.54000000  1
  C  C335  1  0.28850000  0.68220000  0.53870000  1
  C  C336  1  0.27980000  0.69340000  0.51100000  1
  C  C337  1  0.22240000  0.67380000  0.48200000  1
  C  C338  1  0.17590000  0.64380000  0.48130000  1
  C  C339  1  0.32540000  0.72590000  0.51120000  1
  C  C340  1  0.40900000  0.72450000  0.51100000  1
  C  C341  1  0.45650000  0.68920000  0.50670000  1
  C  C342  1  0.86640000  0.49210000  0.39800000  1
  C  C343  1  0.81450000  0.49050000  0.36680000  1
  C  C344  1  0.75730000  0.46000000  0.34680000  1
  C  C345  1  0.71150000  0.46130000  0.31780000  1
  C  C346  1  0.72020000  0.48900000  0.30660000  1
  C  C347  1  0.77760000  0.51800000  0.32620000  1
  C  C348  1  0.82410000  0.51870000  0.35620000  1
  C  C349  1  0.67460000  0.48880000  0.27410000  1
  C  C350  1  0.59100000  0.48900000  0.27550000  1
  C  C351  1  0.54350000  0.49330000  0.31080000  1
  C  C352  1  0.86640000  0.60200000  0.09410000  1
  C  C353  1  0.81450000  0.63320000  0.12370000  1
  C  C354  1  0.75730000  0.65320000  0.11320000  1
  C  C355  1  0.71150000  0.68220000  0.14350000  1
  C  C356  1  0.72020000  0.69340000  0.18240000  1
  C  C357  1  0.77760000  0.67380000  0.19180000  1
  C  C358  1  0.82410000  0.64380000  0.16250000  1
  C  C359  1  0.67460000  0.72590000  0.21470000  1
  C  C360  1  0.59100000  0.72450000  0.21350000  1
  C  C361  1  0.54350000  0.68920000  0.18250000  1
  C  C362  1  0.86640000  0.90590000  0.50790000  1
  C  C363  1  0.81450000  0.87630000  0.50950000  1
  C  C364  1  0.75730000  0.88680000  0.54000000  1
  C  C365  1  0.71150000  0.85650000  0.53870000  1
  C  C366  1  0.72020000  0.81760000  0.51100000  1
  C  C367  1  0.77760000  0.80820000  0.48200000  1
  C  C368  1  0.82410000  0.83750000  0.48130000  1
  C  C369  1  0.67460000  0.78530000  0.51120000  1
  C  C370  1  0.59100000  0.78650000  0.51100000  1
  C  C371  1  0.54350000  0.81750000  0.50670000  1
  C  C372  1  0.86640000  0.50790000  0.60200000  1
  C  C373  1  0.81450000  0.50950000  0.63320000  1
  C  C374  1  0.75730000  0.54000000  0.65320000  1
  C  C375  1  0.71150000  0.53870000  0.68220000  1
  C  C376  1  0.72020000  0.51100000  0.69340000  1
  C  C377  1  0.77760000  0.48200000  0.67380000  1
  C  C378  1  0.82410000  0.48130000  0.64380000  1
  C  C379  1  0.67460000  0.51120000  0.72590000  1
  C  C380  1  0.59100000  0.51100000  0.72450000  1
  C  C381  1  0.54350000  0.50670000  0.68920000  1
  C  C382  1  0.86640000  0.39800000  0.90590000  1
  C  C383  1  0.81450000  0.36680000  0.87630000  1
  C  C384  1  0.75730000  0.34680000  0.88680000  1
  C  C385  1  0.71150000  0.31780000  0.85650000  1
  C  C386  1  0.72020000  0.30660000  0.81760000  1
  C  C387  1  0.77760000  0.32620000  0.80820000  1
  C  C388  1  0.82410000  0.35620000  0.83750000  1
  C  C389  1  0.67460000  0.27410000  0.78530000  1
  C  C390  1  0.59100000  0.27550000  0.78650000  1
  C  C391  1  0.54350000  0.31080000  0.81750000  1
  C  C392  1  0.86640000  0.09410000  0.49210000  1
  C  C393  1  0.81450000  0.12370000  0.49050000  1
  C  C394  1  0.75730000  0.11320000  0.46000000  1
  C  C395  1  0.71150000  0.14350000  0.46130000  1
  C  C396  1  0.72020000  0.18240000  0.48900000  1
  C  C397  1  0.77760000  0.19180000  0.51800000  1
  C  C398  1  0.82410000  0.16250000  0.51870000  1
  C  C399  1  0.67460000  0.21470000  0.48880000  1
  C  C400  1  0.59100000  0.21350000  0.48900000  1
  C  C401  1  0.54350000  0.18250000  0.49330000  1
  C  C402  1  0.71070000  0.75550000  0.24450000  1
  C  C403  1  0.54680000  0.75600000  0.24400000  1
  C  C404  1  0.71070000  0.48900000  0.24450000  1
  C  C405  1  0.54680000  0.48800000  0.24400000  1
  C  C406  1  0.71070000  0.75550000  0.51100000  1
  C  C407  1  0.54680000  0.75600000  0.51200000  1
  C  C408  1  0.71070000  0.24450000  0.75550000  1
  C  C409  1  0.54680000  0.24400000  0.75600000  1
  C  C410  1  0.71070000  0.51100000  0.75550000  1
  C  C411  1  0.54680000  0.51200000  0.75600000  1
  C  C412  1  0.71070000  0.24450000  0.48900000  1
  C  C413  1  0.54680000  0.24400000  0.48800000  1
  C  C414  1  0.28930000  0.51100000  0.75550000  1
  C  C415  1  0.45320000  0.51200000  0.75600000  1
  C  C416  1  0.28930000  0.24450000  0.75550000  1
  C  C417  1  0.45320000  0.24400000  0.75600000  1
  C  C418  1  0.28930000  0.24450000  0.48900000  1
  C  C419  1  0.45320000  0.24400000  0.48800000  1
  C  C420  1  0.28930000  0.48900000  0.24450000  1
  C  C421  1  0.45320000  0.48800000  0.24400000  1
  C  C422  1  0.28930000  0.75550000  0.24450000  1
  C  C423  1  0.45320000  0.75600000  0.24400000  1
  C  C424  1  0.28930000  0.75550000  0.51100000  1
  C  C425  1  0.45320000  0.75600000  0.51200000  1
  S  S426  1  0.66800000  0.08700000  0.54350000  1
  S  S427  1  0.66800000  0.45650000  0.91300000  1
  S  S428  1  0.66800000  0.45650000  0.54350000  1
  S  S429  1  0.33200000  0.54350000  0.45650000  1
  S  S430  1  0.33200000  0.54350000  0.08700000  1
  S  S431  1  0.33200000  0.91300000  0.45650000  1
  S  S432  1  0.00000000  0.03400000  0.36500000  1
  S  S433  1  0.00000000  0.33100000  0.96600000  1
  S  S434  1  0.00000000  0.63500000  0.66900000  1
  S  S435  1  0.00000000  0.96600000  0.63500000  1
  S  S436  1  0.00000000  0.66900000  0.03400000  1
  S  S437  1  0.00000000  0.36500000  0.33100000  1
  S  S438  1  1.00000000  0.66900000  0.63500000  1
  S  S439  1  0.00000000  0.36500000  0.03400000  1
  S  S440  1  1.00000000  0.96600000  0.33100000  1
  S  S441  1  0.00000000  0.33100000  0.36500000  1
  S  S442  1  0.00000000  0.03400000  0.66900000  1
  S  S443  1  0.00000000  0.65800000  1.00000000  1
  S  S444  1  0.61800000  0.00000000  0.50000000  1
  S  S445  1  0.61800000  0.50000000  0.00000000  1
  S  S446  1  0.61800000  0.50000000  0.50000000  1
  S  S447  1  0.38200000  0.50000000  0.50000000  1
  S  S448  1  0.38200000  0.50000000  0.00000000  1
  S  S449  1  0.38200000  0.00000000  0.50000000  1
  O  O450  1  0.91800000  0.89530000  0.41370000  1
  O  O451  1  0.85000000  0.94230000  0.40770000  1
  O  O452  1  0.91800000  0.51840000  0.10470000  1
  O  O453  1  0.85000000  0.46540000  0.05770000  1
  O  O454  1  0.91800000  0.58630000  0.48160000  1
  O  O455  1  0.85000000  0.59230000  0.53460000  1
  O  O456  1  0.91800000  0.10470000  0.58630000  1
  O  O457  1  0.85000000  0.05770000  0.59230000  1
  O  O458  1  0.91800000  0.48160000  0.89530000  1
  O  O459  1  0.85000000  0.53460000  0.94230000  1
  O  O460  1  0.91800000  0.41370000  0.51840000  1
  O  O461  1  0.85000000  0.40770000  0.46540000  1
  O  O462  1  0.08200000  0.48160000  0.58630000  1
  O  O463  1  0.15000000  0.53460000  0.59230000  1
  O  O464  1  0.08200000  0.41370000  0.89530000  1
  O  O465  1  0.15000000  0.40770000  0.94230000  1
  O  O466  1  0.08200000  0.10470000  0.51840000  1
  O  O467  1  0.15000000  0.05770000  0.46540000  1
  O  O468  1  0.08200000  0.51840000  0.41370000  1
  O  O469  1  0.15000000  0.46540000  0.40770000  1
  O  O470  1  0.08200000  0.58630000  0.10470000  1
  O  O471  1  0.15000000  0.59230000  0.05770000  1
  O  O472  1  0.08200000  0.89530000  0.48160000  1
  O  O473  1  0.15000000  0.94230000  0.53460000  1
  O  O474  1  0.08200000  0.10470000  0.58630000  1
  O  O475  1  0.15000000  0.05770000  0.59230000  1
  O  O476  1  0.08200000  0.48160000  0.89530000  1
  O  O477  1  0.15000000  0.53460000  0.94230000  1
  O  O478  1  0.08200000  0.41370000  0.51840000  1
  O  O479  1  0.15000000  0.40770000  0.46540000  1
  O  O480  1  0.08200000  0.89530000  0.41370000  1
  O  O481  1  0.15000000  0.94230000  0.40770000  1
  O  O482  1  0.08200000  0.51840000  0.10470000  1
  O  O483  1  0.15000000  0.46540000  0.05770000  1
  O  O484  1  0.08200000  0.58630000  0.48160000  1
  O  O485  1  0.15000000  0.59230000  0.53460000  1
  O  O486  1  0.91800000  0.51840000  0.41370000  1
  O  O487  1  0.85000000  0.46540000  0.40770000  1
  O  O488  1  0.91800000  0.58630000  0.10470000  1
  O  O489  1  0.85000000  0.59230000  0.05770000  1
  O  O490  1  0.91800000  0.89530000  0.48160000  1
  O  O491  1  0.85000000  0.94230000  0.53460000  1
  O  O492  1  0.91800000  0.48160000  0.58630000  1
  O  O493  1  0.85000000  0.53460000  0.59230000  1
  O  O494  1  0.91800000  0.41370000  0.89530000  1
  O  O495  1  0.85000000  0.40770000  0.94230000  1
  O  O496  1  0.91800000  0.10470000  0.51840000  1
  O  O497  1  0.85000000  0.05770000  0.46540000  1
  O  O498  1  0.89030000  0.96520000  0.48260000  1
  O  O499  1  0.89030000  0.51740000  0.03480000  1
  O  O500  1  0.89030000  0.51740000  0.48260000  1
  O  O501  1  0.89030000  0.03480000  0.51740000  1
  O  O502  1  0.89030000  0.48260000  0.96520000  1
  O  O503  1  0.89030000  0.48260000  0.51740000  1
  O  O504  1  0.10970000  0.48260000  0.51740000  1
  O  O505  1  0.10970000  0.48260000  0.96520000  1
  O  O506  1  0.10970000  0.03480000  0.51740000  1
  O  O507  1  0.10970000  0.51740000  0.48260000  1
  O  O508  1  0.10970000  0.51740000  0.03480000  1
  O  O509  1  0.10970000  0.96520000  0.48260000  1
  O  O510  1  1.00000000  0.96360000  0.43680000  1
  O  O511  1  0.00000000  0.47320000  0.03640000  1
  O  O512  1  1.00000000  0.56320000  0.52680000  1
  O  O513  1  0.00000000  0.03640000  0.56320000  1
  O  O514  1  0.00000000  0.52680000  0.96360000  1
  O  O515  1  0.00000000  0.43680000  0.47320000  1
  O  O516  1  0.00000000  0.52680000  0.56320000  1
  O  O517  1  0.00000000  0.43680000  0.96360000  1
  O  O518  1  0.00000000  0.03640000  0.47320000  1
  O  O519  1  1.00000000  0.47320000  0.43680000  1
  O  O520  1  0.00000000  0.56320000  0.03640000  1
  O  O521  1  1.00000000  0.96360000  0.52680000  1
  O  O522  1  0.92630000  0.00000000  0.40060000  1
  O  O523  1  0.76240000  0.00000000  0.46800000  1
  O  O524  1  0.76240000  0.46800000  0.00000000  1
  O  O525  1  0.88000000  0.39910000  0.00000000  1
  O  O526  1  0.92630000  0.59940000  0.59940000  1
  O  O527  1  0.76240000  0.53200000  0.53200000  1
  O  O528  1  0.92630000  0.00000000  0.59940000  1
  O  O529  1  0.76240000  0.00000000  0.53200000  1
  O  O530  1  0.92630000  0.59940000  0.00000000  1
  O  O531  1  0.76240000  0.53200000  0.00000000  1
  O  O532  1  0.92630000  0.40060000  0.40060000  1
  O  O533  1  0.76240000  0.46800000  0.46800000  1
  O  O534  1  0.07370000  0.59940000  0.59940000  1
  O  O535  1  0.23760000  0.53200000  0.53200000  1
  O  O536  1  0.07370000  0.40060000  0.00000000  1
  O  O537  1  0.23760000  0.46800000  0.00000000  1
  O  O538  1  0.07370000  0.00000000  0.40060000  1
  O  O539  1  0.23760000  0.00000000  0.46800000  1
  O  O540  1  0.07370000  0.40060000  0.40060000  1
  O  O541  1  0.23760000  0.46800000  0.46800000  1
  O  O542  1  0.07370000  0.59940000  0.00000000  1
  O  O543  1  0.23760000  0.53200000  0.00000000  1
  O  O544  1  0.07370000  0.00000000  0.59940000  1
  O  O545  1  0.23760000  0.00000000  0.53200000  1
