# generated using pymatgen
data_Zr3(C3O4)4
_symmetry_space_group_name_H-M   'P 1'
_cell_length_a   11.16083201
_cell_length_b   11.16083201
_cell_length_c   11.16083201
_cell_angle_alpha   60.00000000
_cell_angle_beta   60.00000000
_cell_angle_gamma   60.00000000
_symmetry_Int_Tables_number   1
_chemical_formula_structural   Zr3(C3O4)4
_chemical_formula_sum   'Zr6 C24 O32'
_cell_volume   983.04798285
_cell_formula_units_Z   2
loop_
 _symmetry_equiv_pos_site_id
 _symmetry_equiv_pos_as_xyz
  1  'x, y, z'
loop_
 _atom_site_type_symbol
 _atom_site_label
 _atom_site_symmetry_multiplicity
 _atom_site_fract_x
 _atom_site_fract_y
 _atom_site_fract_z
 _atom_site_occupancy
  C  C0  1  0.93500000  0.56520000  0.06500000  1
  C  C1  1  0.43480000  0.06500000  0.56520000  1
  C  C2  1  0.06500000  0.43480000  0.93500000  1
  C  C3  1  0.56520000  0.93500000  0.43480000  1
  C  C4  1  0.56520000  0.06500000  0.93500000  1
  C  C5  1  0.06500000  0.56520000  0.43480000  1
  C  C6  1  0.43480000  0.93500000  0.06500000  1
  C  C7  1  0.93500000  0.43480000  0.56520000  1
  C  C8  1  0.06500000  0.93500000  0.56520000  1
  C  C9  1  0.56520000  0.43480000  0.06500000  1
  C  C10  1  0.93500000  0.06500000  0.43480000  1
  C  C11  1  0.43480000  0.56520000  0.93500000  1
  C  C12  1  0.56520000  0.43480000  0.93500000  1
  C  C13  1  0.06500000  0.93500000  0.43480000  1
  C  C14  1  0.43480000  0.56520000  0.06500000  1
  C  C15  1  0.93500000  0.06500000  0.56520000  1
  C  C16  1  0.56520000  0.93500000  0.06500000  1
  C  C17  1  0.06500000  0.43480000  0.56520000  1
  C  C18  1  0.43480000  0.06500000  0.93500000  1
  C  C19  1  0.93500000  0.56520000  0.43480000  1
  C  C20  1  0.56520000  0.06500000  0.43480000  1
  C  C21  1  0.06500000  0.56520000  0.93500000  1
  C  C22  1  0.43480000  0.93500000  0.56520000  1
  C  C23  1  0.93500000  0.43480000  0.06500000  1
  O  O24  1  0.86770000  0.64930000  0.13230000  1
  O  O25  1  0.35070000  0.13230000  0.64930000  1
  O  O26  1  0.13230000  0.35070000  0.86770000  1
  O  O27  1  0.64930000  0.86770000  0.35070000  1
  O  O28  1  0.64930000  0.13230000  0.86770000  1
  O  O29  1  0.13230000  0.64930000  0.35070000  1
  O  O30  1  0.35070000  0.86770000  0.13230000  1
  O  O31  1  0.86770000  0.35070000  0.64930000  1
  O  O32  1  0.13230000  0.86770000  0.64930000  1
  O  O33  1  0.64930000  0.35070000  0.13230000  1
  O  O34  1  0.86770000  0.13230000  0.35070000  1
  O  O35  1  0.35070000  0.64930000  0.86770000  1
  O  O36  1  0.64930000  0.35070000  0.86770000  1
  O  O37  1  0.13230000  0.86770000  0.35070000  1
  O  O38  1  0.35070000  0.64930000  0.13230000  1
  O  O39  1  0.86770000  0.13230000  0.64930000  1
  O  O40  1  0.64930000  0.86770000  0.13230000  1
  O  O41  1  0.13230000  0.35070000  0.64930000  1
  O  O42  1  0.35070000  0.13230000  0.86770000  1
  O  O43  1  0.86770000  0.64930000  0.35070000  1
  O  O44  1  0.64930000  0.13230000  0.35070000  1
  O  O45  1  0.13230000  0.64930000  0.86770000  1
  O  O46  1  0.35070000  0.86770000  0.64930000  1
  O  O47  1  0.86770000  0.35070000  0.13230000  1
  O  O48  1  0.91560000  0.91560000  0.91560000  1
  O  O49  1  0.25320000  0.91560000  0.91560000  1
  O  O50  1  0.91560000  0.25320000  0.91560000  1
  O  O51  1  0.91560000  0.91560000  0.25320000  1
  O  O52  1  0.74680000  0.08440000  0.08440000  1
  O  O53  1  0.08440000  0.08440000  0.08440000  1
  O  O54  1  0.08440000  0.74680000  0.08440000  1
  O  O55  1  0.08440000  0.08440000  0.74680000  1
  Zr  Zr56  1  0.84185000  0.84185000  0.15815000  1
  Zr  Zr57  1  0.15815000  0.15815000  0.84185000  1
  Zr  Zr58  1  0.84185000  0.15815000  0.84185000  1
  Zr  Zr59  1  0.15815000  0.84185000  0.15815000  1
  Zr  Zr60  1  0.15815000  0.84185000  0.84185000  1
  Zr  Zr61  1  0.84185000  0.15815000  0.15815000  1
