# generated using pymatgen
data_Zr(CO2)6
_symmetry_space_group_name_H-M   'P 1'
_cell_length_a   8.93900000
_cell_length_b   9.94228880
_cell_length_c   9.94228880
_cell_angle_alpha   68.20647527
_cell_angle_beta   75.23159248
_cell_angle_gamma   75.23159248
_symmetry_Int_Tables_number   1
_chemical_formula_structural   Zr(CO2)6
_chemical_formula_sum   'Zr2 C12 O24'
_cell_volume   780.61152479
_cell_formula_units_Z   2
loop_
 _symmetry_equiv_pos_site_id
 _symmetry_equiv_pos_as_xyz
  1  'x, y, z'
loop_
 _atom_site_type_symbol
 _atom_site_label
 _atom_site_symmetry_multiplicity
 _atom_site_fract_x
 _atom_site_fract_y
 _atom_site_fract_z
 _atom_site_occupancy
  C  C0  1  0.09410000  0.78780000  0.05660000  1
  C  C1  1  0.24900000  0.69370000  0.01310000  1
  C  C2  1  0.03570000  0.44660000  0.45580000  1
  C  C3  1  0.95170000  0.56510000  0.52690000  1
  C  C4  1  0.42580000  0.93390000  0.22850000  1
  C  C5  1  0.26400000  0.98290000  0.31430000  1
  C  C6  1  0.59410000  0.05660000  0.78780000  1
  C  C7  1  0.74900000  0.01310000  0.69370000  1
  C  C8  1  0.53570000  0.45580000  0.44660000  1
  C  C9  1  0.45170000  0.52690000  0.56510000  1
  C  C10  1  0.92580000  0.22850000  0.93390000  1
  C  C11  1  0.76400000  0.31430000  0.98290000  1
  O  O12  1  0.99740000  0.84420000  0.97420000  1
  O  O13  1  0.07850000  0.79580000  0.18840000  1
  O  O14  1  0.28720000  0.67280000  0.89280000  1
  O  O15  1  0.33560000  0.63630000  0.11790000  1
  O  O16  1  0.16160000  0.47010000  0.37010000  1
  O  O17  1  0.97170000  0.33840000  0.49460000  1
  O  O18  1  0.02220000  0.67120000  0.49280000  1
  O  O19  1  0.82420000  0.54090000  0.61630000  1
  O  O20  1  0.44200000  0.80040000  0.22700000  1
  O  O21  1  0.52490000  0.00980000  0.17300000  1
  O  O22  1  0.17800000  0.88650000  0.36910000  1
  O  O23  1  0.22950000  0.10560000  0.32120000  1
  O  O24  1  0.47170000  0.49460000  0.33840000  1
  O  O25  1  0.32420000  0.61630000  0.54090000  1
  O  O26  1  0.49740000  0.97420000  0.84420000  1
  O  O27  1  0.57850000  0.18840000  0.79580000  1
  O  O28  1  0.78720000  0.89280000  0.67280000  1
  O  O29  1  0.83560000  0.11790000  0.63630000  1
  O  O30  1  0.66160000  0.37010000  0.47010000  1
  O  O31  1  0.52220000  0.49280000  0.67120000  1
  O  O32  1  0.94200000  0.22700000  0.80040000  1
  O  O33  1  0.02490000  0.17300000  0.00980000  1
  O  O34  1  0.67800000  0.36910000  0.88650000  1
  O  O35  1  0.72950000  0.32120000  0.10560000  1
  Zr  Zr36  1  0.25000000  0.67782000  0.32218000  1
  Zr  Zr37  1  0.75000000  0.32218000  0.67782000  1
