# generated using pymatgen
data_Zr3H16(C3O2)8
_symmetry_space_group_name_H-M   'P 1'
_cell_length_a   14.66815236
_cell_length_b   14.66815236
_cell_length_c   14.66815236
_cell_angle_alpha   60.00000000
_cell_angle_beta   60.00000000
_cell_angle_gamma   60.00000000
_symmetry_Int_Tables_number   1
_chemical_formula_structural   Zr3H16(C3O2)8
_chemical_formula_sum   'Zr6 H32 C48 O32'
_cell_volume   2231.57372434
_cell_formula_units_Z   2
loop_
 _symmetry_equiv_pos_site_id
 _symmetry_equiv_pos_as_xyz
  1  'x, y, z'
loop_
 _atom_site_type_symbol
 _atom_site_label
 _atom_site_symmetry_multiplicity
 _atom_site_fract_x
 _atom_site_fract_y
 _atom_site_fract_z
 _atom_site_occupancy
  C  C0  1  0.91840000  0.54740000  0.45260000  1.0
  C  C1  1  0.08160000  0.45260000  0.54740000  1.0
  C  C2  1  0.45260000  0.08160000  0.91840000  1.0
  C  C3  1  0.54740000  0.91840000  0.08160000  1.0
  C  C4  1  0.54740000  0.45260000  0.91840000  1.0
  C  C5  1  0.45260000  0.54740000  0.08160000  1.0
  C  C6  1  0.08160000  0.91840000  0.45260000  1.0
  C  C7  1  0.91840000  0.08160000  0.54740000  1.0
  C  C8  1  0.45260000  0.91840000  0.54740000  1.0
  C  C9  1  0.54740000  0.08160000  0.45260000  1.0
  C  C10  1  0.91840000  0.45260000  0.08160000  1.0
  C  C11  1  0.08160000  0.54740000  0.91840000  1.0
  C  C12  1  0.91840000  0.45260000  0.54740000  1.0
  C  C13  1  0.08160000  0.54740000  0.45260000  1.0
  C  C14  1  0.45260000  0.91840000  0.08160000  1.0
  C  C15  1  0.54740000  0.08160000  0.91840000  1.0
  C  C16  1  0.91840000  0.54740000  0.08160000  1.0
  C  C17  1  0.08160000  0.45260000  0.91840000  1.0
  C  C18  1  0.45260000  0.08160000  0.54740000  1.0
  C  C19  1  0.54740000  0.91840000  0.45260000  1.0
  C  C20  1  0.91840000  0.08160000  0.45260000  1.0
  C  C21  1  0.08160000  0.91840000  0.54740000  1.0
  C  C22  1  0.45260000  0.54740000  0.91840000  1.0
  C  C23  1  0.54740000  0.45260000  0.08160000  1.0
  C  C24  1  0.00000000  0.69680000  0.30320000  1.0
  C  C25  1  0.00000000  0.59440000  0.40560000  1.0
  C  C26  1  0.00000000  0.30320000  0.69680000  1.0
  C  C27  1  0.00000000  0.40560000  0.59440000  1.0
  C  C28  1  0.30320000  0.00000000  0.00000000  1.0
  C  C29  1  0.40560000  0.00000000  0.00000000  1.0
  C  C30  1  0.69680000  0.00000000  0.00000000  1.0
  C  C31  1  0.59440000  0.00000000  0.00000000  1.0
  C  C32  1  0.69680000  0.30320000  0.00000000  1.0
  C  C33  1  0.59440000  0.40560000  0.00000000  1.0
  C  C34  1  0.30320000  0.69680000  0.00000000  1.0
  C  C35  1  0.40560000  0.59440000  0.00000000  1.0
  C  C36  1  1.00000000  0.00000000  0.30320000  1.0
  C  C37  1  1.00000000  0.00000000  0.40560000  1.0
  C  C38  1  1.00000000  0.00000000  0.69680000  1.0
  C  C39  1  1.00000000  0.00000000  0.59440000  1.0
  C  C40  1  0.30320000  0.00000000  0.69680000  1.0
  C  C41  1  0.40560000  0.00000000  0.59440000  1.0
  C  C42  1  0.69680000  0.00000000  0.30320000  1.0
  C  C43  1  0.59440000  0.00000000  0.40560000  1.0
  C  C44  1  1.00000000  0.30320000  0.00000000  1.0
  C  C45  1  1.00000000  0.40560000  0.00000000  1.0
  C  C46  1  1.00000000  0.69680000  0.00000000  1.0
  C  C47  1  1.00000000  0.59440000  0.00000000  1.0
  H  H48  1  0.86240000  0.57980000  0.42020000  1.0
  H  H49  1  0.13760000  0.42020000  0.57980000  1.0
  H  H50  1  0.42020000  0.13760000  0.86240000  1.0
  H  H51  1  0.57980000  0.86240000  0.13760000  1.0
  H  H52  1  0.57980000  0.42020000  0.86240000  1.0
  H  H53  1  0.42020000  0.57980000  0.13760000  1.0
  H  H54  1  0.13760000  0.86240000  0.42020000  1.0
  H  H55  1  0.86240000  0.13760000  0.57980000  1.0
  H  H56  1  0.42020000  0.86240000  0.57980000  1.0
  H  H57  1  0.57980000  0.13760000  0.42020000  1.0
  H  H58  1  0.86240000  0.42020000  0.13760000  1.0
  H  H59  1  0.13760000  0.57980000  0.86240000  1.0
  H  H60  1  0.86240000  0.42020000  0.57980000  1.0
  H  H61  1  0.13760000  0.57980000  0.42020000  1.0
  H  H62  1  0.42020000  0.86240000  0.13760000  1.0
  H  H63  1  0.57980000  0.13760000  0.86240000  1.0
  H  H64  1  0.86240000  0.57980000  0.13760000  1.0
  H  H65  1  0.13760000  0.42020000  0.86240000  1.0
  H  H66  1  0.42020000  0.13760000  0.57980000  1.0
  H  H67  1  0.57980000  0.86240000  0.42020000  1.0
  H  H68  1  0.86240000  0.13760000  0.42020000  1.0
  H  H69  1  0.13760000  0.86240000  0.57980000  1.0
  H  H70  1  0.42020000  0.57980000  0.86240000  1.0
  H  H71  1  0.57980000  0.42020000  0.13760000  1.0
  H  H72  1  0.90990000  0.90990000  0.90990000  1.0
  H  H73  1  0.27030000  0.90990000  0.90990000  1.0
  H  H74  1  0.90990000  0.27030000  0.90990000  1.0
  H  H75  1  0.90990000  0.90990000  0.27030000  1.0
  H  H76  1  0.72970000  0.09010000  0.09010000  1.0
  H  H77  1  0.09010000  0.09010000  0.09010000  1.0
  H  H78  1  0.09010000  0.72970000  0.09010000  1.0
  H  H79  1  0.09010000  0.09010000  0.72970000  1.0
  O  O80  1  0.91895000  0.73435000  0.26565000  1.0
  O  O81  1  0.08105000  0.26565000  0.73435000  1.0
  O  O82  1  0.26565000  0.08105000  0.91895000  1.0
  O  O83  1  0.73435000  0.91895000  0.08105000  1.0
  O  O84  1  0.73435000  0.26565000  0.91895000  1.0
  O  O85  1  0.26565000  0.73435000  0.08105000  1.0
  O  O86  1  0.08105000  0.91895000  0.26565000  1.0
  O  O87  1  0.91895000  0.08105000  0.73435000  1.0
  O  O88  1  0.26565000  0.91895000  0.73435000  1.0
  O  O89  1  0.73435000  0.08105000  0.26565000  1.0
  O  O90  1  0.91895000  0.26565000  0.08105000  1.0
  O  O91  1  0.08105000  0.73435000  0.91895000  1.0
  O  O92  1  0.91895000  0.26565000  0.73435000  1.0
  O  O93  1  0.08105000  0.73435000  0.26565000  1.0
  O  O94  1  0.26565000  0.91895000  0.08105000  1.0
  O  O95  1  0.73435000  0.08105000  0.91895000  1.0
  O  O96  1  0.91895000  0.73435000  0.08105000  1.0
  O  O97  1  0.08105000  0.26565000  0.91895000  1.0
  O  O98  1  0.26565000  0.08105000  0.73435000  1.0
  O  O99  1  0.73435000  0.91895000  0.26565000  1.0
  O  O100  1  0.91895000  0.08105000  0.26565000  1.0
  O  O101  1  0.08105000  0.91895000  0.73435000  1.0
  O  O102  1  0.26565000  0.73435000  0.91895000  1.0
  O  O103  1  0.73435000  0.26565000  0.08105000  1.0
  O  O104  1  0.93210000  0.93210000  0.93210000  1.0
  O  O105  1  0.20370000  0.93210000  0.93210000  1.0
  O  O106  1  0.93210000  0.20370000  0.93210000  1.0
  O  O107  1  0.93210000  0.93210000  0.20370000  1.0
  O  O108  1  0.79630000  0.06790000  0.06790000  1.0
  O  O109  1  0.06790000  0.06790000  0.06790000  1.0
  O  O110  1  0.06790000  0.79630000  0.06790000  1.0
  O  O111  1  0.06790000  0.06790000  0.79630000  1.0
  Zr  Zr112  1  0.88039000  0.88039000  0.11961000  1.0
  Zr  Zr113  1  0.11961000  0.11961000  0.88039000  1.0
  Zr  Zr114  1  0.88039000  0.11961000  0.88039000  1.0
  Zr  Zr115  1  0.11961000  0.88039000  0.11961000  1.0
  Zr  Zr116  1  0.11961000  0.88039000  0.88039000  1.0
  Zr  Zr117  1  0.88039000  0.11961000  0.11961000  1.0
