# generated using pymatgen
data_Zr3H16(C3O2)8
_symmetry_space_group_name_H-M   'P 1'
_cell_length_a   14.64580778
_cell_length_b   14.64580778
_cell_length_c   14.64580778
_cell_angle_alpha   60.00000000
_cell_angle_beta   60.00000000
_cell_angle_gamma   60.00000000
_symmetry_Int_Tables_number   1
_chemical_formula_structural   Zr3H16(C3O2)8
_chemical_formula_sum   'Zr6 H32 C48 O32'
_cell_volume   2221.39091949
_cell_formula_units_Z   2
loop_
 _symmetry_equiv_pos_site_id
 _symmetry_equiv_pos_as_xyz
  1  'x, y, z'
loop_
 _atom_site_type_symbol
 _atom_site_label
 _atom_site_symmetry_multiplicity
 _atom_site_fract_x
 _atom_site_fract_y
 _atom_site_fract_z
 _atom_site_occupancy
  C  C0  1  0.91831000  0.54745000  0.45255000  1
  C  C1  1  0.08169000  0.45255000  0.54745000  1
  C  C2  1  0.45255000  0.08169000  0.91831000  1
  C  C3  1  0.54745000  0.91831000  0.08169000  1
  C  C4  1  0.54745000  0.45255000  0.91831000  1
  C  C5  1  0.45255000  0.54745000  0.08169000  1
  C  C6  1  0.08169000  0.91831000  0.45255000  1
  C  C7  1  0.91831000  0.08169000  0.54745000  1
  C  C8  1  0.45255000  0.91831000  0.54745000  1
  C  C9  1  0.54745000  0.08169000  0.45255000  1
  C  C10  1  0.91831000  0.45255000  0.08169000  1
  C  C11  1  0.08169000  0.54745000  0.91831000  1
  C  C12  1  0.91831000  0.45255000  0.54745000  1
  C  C13  1  0.08169000  0.54745000  0.45255000  1
  C  C14  1  0.45255000  0.91831000  0.08169000  1
  C  C15  1  0.54745000  0.08169000  0.91831000  1
  C  C16  1  0.91831000  0.54745000  0.08169000  1
  C  C17  1  0.08169000  0.45255000  0.91831000  1
  C  C18  1  0.45255000  0.08169000  0.54745000  1
  C  C19  1  0.54745000  0.91831000  0.45255000  1
  C  C20  1  0.91831000  0.08169000  0.45255000  1
  C  C21  1  0.08169000  0.91831000  0.54745000  1
  C  C22  1  0.45255000  0.54745000  0.91831000  1
  C  C23  1  0.54745000  0.45255000  0.08169000  1
  C  C24  1  0.00000000  0.69692000  0.30308000  1
  C  C25  1  0.00000000  0.59458000  0.40542000  1
  C  C26  1  0.00000000  0.30308000  0.69692000  1
  C  C27  1  0.00000000  0.40542000  0.59458000  1
  C  C28  1  0.30308000  0.00000000  0.00000000  1
  C  C29  1  0.40542000  0.00000000  0.00000000  1
  C  C30  1  0.69692000  0.00000000  0.00000000  1
  C  C31  1  0.59458000  0.00000000  0.00000000  1
  C  C32  1  0.69692000  0.30308000  0.00000000  1
  C  C33  1  0.59458000  0.40542000  0.00000000  1
  C  C34  1  0.30308000  0.69692000  0.00000000  1
  C  C35  1  0.40542000  0.59458000  0.00000000  1
  C  C36  1  1.00000000  0.00000000  0.30308000  1
  C  C37  1  1.00000000  0.00000000  0.40542000  1
  C  C38  1  0.00000000  0.00000000  0.69692000  1
  C  C39  1  1.00000000  0.00000000  0.59458000  1
  C  C40  1  0.30308000  0.00000000  0.69692000  1
  C  C41  1  0.40542000  0.00000000  0.59458000  1
  C  C42  1  0.69692000  0.00000000  0.30308000  1
  C  C43  1  0.59458000  0.00000000  0.40542000  1
  C  C44  1  1.00000000  0.30308000  0.00000000  1
  C  C45  1  1.00000000  0.40542000  0.00000000  1
  C  C46  1  0.00000000  0.69692000  0.00000000  1
  C  C47  1  1.00000000  0.59458000  0.00000000  1
  H  H48  1  0.86215000  0.57989000  0.42011000  1
  H  H49  1  0.13785000  0.42011000  0.57989000  1
  H  H50  1  0.42011000  0.13785000  0.86215000  1
  H  H51  1  0.57989000  0.86215000  0.13785000  1
  H  H52  1  0.57989000  0.42011000  0.86215000  1
  H  H53  1  0.42011000  0.57989000  0.13785000  1
  H  H54  1  0.13785000  0.86215000  0.42011000  1
  H  H55  1  0.86215000  0.13785000  0.57989000  1
  H  H56  1  0.42011000  0.86215000  0.57989000  1
  H  H57  1  0.57989000  0.13785000  0.42011000  1
  H  H58  1  0.86215000  0.42011000  0.13785000  1
  H  H59  1  0.13785000  0.57989000  0.86215000  1
  H  H60  1  0.86215000  0.42011000  0.57989000  1
  H  H61  1  0.13785000  0.57989000  0.42011000  1
  H  H62  1  0.42011000  0.86215000  0.13785000  1
  H  H63  1  0.57989000  0.13785000  0.86215000  1
  H  H64  1  0.86215000  0.57989000  0.13785000  1
  H  H65  1  0.13785000  0.42011000  0.86215000  1
  H  H66  1  0.42011000  0.13785000  0.57989000  1
  H  H67  1  0.57989000  0.86215000  0.42011000  1
  H  H68  1  0.86215000  0.13785000  0.42011000  1
  H  H69  1  0.13785000  0.86215000  0.57989000  1
  H  H70  1  0.42011000  0.57989000  0.86215000  1
  H  H71  1  0.57989000  0.42011000  0.13785000  1
  H  H72  1  0.91160000  0.91160000  0.91160000  1
  H  H73  1  0.26520000  0.91160000  0.91160000  1
  H  H74  1  0.91160000  0.26520000  0.91160000  1
  H  H75  1  0.91160000  0.91160000  0.26520000  1
  H  H76  1  0.73480000  0.08840000  0.08840000  1
  H  H77  1  0.08840000  0.08840000  0.08840000  1
  H  H78  1  0.08840000  0.73480000  0.08840000  1
  H  H79  1  0.08840000  0.08840000  0.73480000  1
  O  O80  1  0.92273000  0.73571000  0.26429000  1
  O  O81  1  0.07727000  0.26429000  0.73571000  1
  O  O82  1  0.26429000  0.07727000  0.92273000  1
  O  O83  1  0.73571000  0.92273000  0.07727000  1
  O  O84  1  0.73571000  0.26429000  0.92273000  1
  O  O85  1  0.26429000  0.73571000  0.07727000  1
  O  O86  1  0.07727000  0.92273000  0.26429000  1
  O  O87  1  0.92273000  0.07727000  0.73571000  1
  O  O88  1  0.26429000  0.92273000  0.73571000  1
  O  O89  1  0.73571000  0.07727000  0.26429000  1
  O  O90  1  0.92273000  0.26429000  0.07727000  1
  O  O91  1  0.07727000  0.73571000  0.92273000  1
  O  O92  1  0.92273000  0.26429000  0.73571000  1
  O  O93  1  0.07727000  0.73571000  0.26429000  1
  O  O94  1  0.26429000  0.92273000  0.07727000  1
  O  O95  1  0.73571000  0.07727000  0.92273000  1
  O  O96  1  0.92273000  0.73571000  0.07727000  1
  O  O97  1  0.07727000  0.26429000  0.92273000  1
  O  O98  1  0.26429000  0.07727000  0.73571000  1
  O  O99  1  0.73571000  0.92273000  0.26429000  1
  O  O100  1  0.92273000  0.07727000  0.26429000  1
  O  O101  1  0.07727000  0.92273000  0.73571000  1
  O  O102  1  0.26429000  0.73571000  0.92273000  1
  O  O103  1  0.73571000  0.26429000  0.07727000  1
  O  O104  1  0.93431000  0.93431000  0.93431000  1
  O  O105  1  0.19707000  0.93431000  0.93431000  1
  O  O106  1  0.93431000  0.19707000  0.93431000  1
  O  O107  1  0.93431000  0.93431000  0.19707000  1
  O  O108  1  0.80293000  0.06569000  0.06569000  1
  O  O109  1  0.06569000  0.80293000  0.06569000  1
  O  O110  1  0.06569000  0.06569000  0.80293000  1
  O  O111  1  0.06569000  0.06569000  0.06569000  1.0
  Zr  Zr112  1  0.88059000  0.88059000  0.11941000  1
  Zr  Zr113  1  0.88059000  0.11941000  0.88059000  1
  Zr  Zr114  1  0.11941000  0.88059000  0.88059000  1
  Zr  Zr115  1  0.11941000  0.11941000  0.88059000  1.0
  Zr  Zr116  1  0.11941000  0.88059000  0.11941000  1.0
  Zr  Zr117  1  0.88059000  0.11941000  0.11941000  1.0
