# generated using pymatgen
data_Zr3H12C24O19
_symmetry_space_group_name_H-M   'P 1'
_cell_length_a   14.70796247
_cell_length_b   14.70796247
_cell_length_c   14.70796247
_cell_angle_alpha   60.00000000
_cell_angle_beta   60.00000000
_cell_angle_gamma   60.00000000
_symmetry_Int_Tables_number   1
_chemical_formula_structural   Zr3H12C24O19
_chemical_formula_sum   'Zr6 H24 C48 O38'
_cell_volume   2249.79289662
_cell_formula_units_Z   2
loop_
 _symmetry_equiv_pos_site_id
 _symmetry_equiv_pos_as_xyz
  1  'x, y, z'
loop_
 _atom_site_type_symbol
 _atom_site_label
 _atom_site_symmetry_multiplicity
 _atom_site_fract_x
 _atom_site_fract_y
 _atom_site_fract_z
 _atom_site_occupancy
  C  C0  1  0.07740000  0.49020000  0.04140000  1
  C  C1  1  0.39100000  0.04140000  0.49020000  1
  C  C2  1  0.04140000  0.39100000  0.07740000  1
  C  C3  1  0.49020000  0.07740000  0.39100000  1
  C  C4  1  0.49020000  0.04140000  0.07740000  1
  C  C5  1  0.04140000  0.49020000  0.39100000  1
  C  C6  1  0.39100000  0.07740000  0.04140000  1
  C  C7  1  0.07740000  0.39100000  0.49020000  1
  C  C8  1  0.04140000  0.07740000  0.49020000  1
  C  C9  1  0.49020000  0.39100000  0.04140000  1
  C  C10  1  0.07740000  0.04140000  0.39100000  1
  C  C11  1  0.39100000  0.49020000  0.07740000  1
  C  C12  1  0.92260000  0.50980000  0.95860000  1
  C  C13  1  0.60900000  0.95860000  0.50980000  1
  C  C14  1  0.95860000  0.60900000  0.92260000  1
  C  C15  1  0.50980000  0.92260000  0.60900000  1
  C  C16  1  0.50980000  0.95860000  0.92260000  1
  C  C17  1  0.95860000  0.50980000  0.60900000  1
  C  C18  1  0.60900000  0.92260000  0.95860000  1
  C  C19  1  0.92260000  0.60900000  0.50980000  1
  C  C20  1  0.95860000  0.92260000  0.50980000  1
  C  C21  1  0.50980000  0.60900000  0.95860000  1
  C  C22  1  0.92260000  0.95860000  0.60900000  1
  C  C23  1  0.60900000  0.50980000  0.92260000  1
  C  C24  1  0.99700000  0.70300000  0.00300000  1
  C  C25  1  0.98000000  0.60000000  0.02000000  1
  C  C26  1  0.29700000  0.00300000  0.70300000  1
  C  C27  1  0.40000000  0.02000000  0.60000000  1
  C  C28  1  0.00300000  0.29700000  0.99700000  1
  C  C29  1  0.02000000  0.40000000  0.98000000  1
  C  C30  1  0.70300000  0.99700000  0.29700000  1
  C  C31  1  0.60000000  0.98000000  0.40000000  1
  C  C32  1  0.70300000  0.00300000  0.99700000  1
  C  C33  1  0.60000000  0.02000000  0.98000000  1
  C  C34  1  0.00300000  0.70300000  0.29700000  1
  C  C35  1  0.02000000  0.60000000  0.40000000  1
  C  C36  1  0.29700000  0.99700000  0.00300000  1
  C  C37  1  0.40000000  0.98000000  0.02000000  1
  C  C38  1  0.99700000  0.29700000  0.70300000  1
  C  C39  1  0.98000000  0.40000000  0.60000000  1
  C  C40  1  0.00300000  0.99700000  0.70300000  1
  C  C41  1  0.02000000  0.98000000  0.60000000  1
  C  C42  1  0.70300000  0.29700000  0.00300000  1
  C  C43  1  0.60000000  0.40000000  0.02000000  1
  C  C44  1  0.99700000  0.00300000  0.29700000  1
  C  C45  1  0.98000000  0.02000000  0.40000000  1
  C  C46  1  0.29700000  0.70300000  0.99700000  1
  C  C47  1  0.40000000  0.60000000  0.98000000  1
  H  H48  1  0.15913000  0.49217000  0.02979000  1
  H  H49  1  0.31891000  0.02979000  0.49217000  1
  H  H50  1  0.02979000  0.31891000  0.15913000  1
  H  H51  1  0.49217000  0.15913000  0.31891000  1
  H  H52  1  0.49217000  0.02979000  0.15913000  1
  H  H53  1  0.02979000  0.49217000  0.31891000  1
  H  H54  1  0.31891000  0.15913000  0.02979000  1
  H  H55  1  0.15913000  0.31891000  0.49217000  1
  H  H56  1  0.02979000  0.15913000  0.49217000  1
  H  H57  1  0.49217000  0.31891000  0.02979000  1
  H  H58  1  0.15913000  0.02979000  0.31891000  1
  H  H59  1  0.31891000  0.49217000  0.15913000  1
  H  H60  1  0.84087000  0.50783000  0.97021000  1
  H  H61  1  0.68109000  0.97021000  0.50783000  1
  H  H62  1  0.97021000  0.68109000  0.84087000  1
  H  H63  1  0.50783000  0.84087000  0.68109000  1
  H  H64  1  0.50783000  0.97021000  0.84087000  1
  H  H65  1  0.97021000  0.50783000  0.68109000  1
  H  H66  1  0.68109000  0.84087000  0.97021000  1
  H  H67  1  0.84087000  0.68109000  0.50783000  1
  H  H68  1  0.97021000  0.84087000  0.50783000  1
  H  H69  1  0.50783000  0.68109000  0.97021000  1
  H  H70  1  0.84087000  0.97021000  0.68109000  1
  H  H71  1  0.68109000  0.50783000  0.84087000  1
  O  O72  1  0.21800000  0.78200000  0.78200000  1
  O  O73  1  0.78200000  0.21800000  0.21800000  1
  O  O74  1  0.78200000  0.78200000  0.21800000  1
  O  O75  1  0.21800000  0.21800000  0.78200000  1
  O  O76  1  0.78200000  0.21800000  0.78200000  1
  O  O77  1  0.21800000  0.78200000  0.21800000  1
  O  O78  1  0.94120000  0.94120000  0.94120000  1
  O  O79  1  0.17640000  0.94120000  0.94120000  1
  O  O80  1  0.94120000  0.17640000  0.94120000  1
  O  O81  1  0.94120000  0.94120000  0.17640000  1
  O  O82  1  0.05880000  0.05880000  0.05880000  1
  O  O83  1  0.82360000  0.05880000  0.05880000  1
  O  O84  1  0.05880000  0.82360000  0.05880000  1
  O  O85  1  0.05880000  0.05880000  0.82360000  1
  O  O86  1  0.08400000  0.74000000  0.91600000  1
  O  O87  1  0.91000000  0.74000000  0.09000000  1
  O  O88  1  0.26000000  0.91600000  0.74000000  1
  O  O89  1  0.26000000  0.09000000  0.74000000  1
  O  O90  1  0.91600000  0.26000000  0.08400000  1
  O  O91  1  0.09000000  0.26000000  0.91000000  1
  O  O92  1  0.74000000  0.08400000  0.26000000  1
  O  O93  1  0.74000000  0.91000000  0.26000000  1
  O  O94  1  0.74000000  0.91600000  0.08400000  1
  O  O95  1  0.74000000  0.09000000  0.91000000  1
  O  O96  1  0.91600000  0.74000000  0.26000000  1
  O  O97  1  0.09000000  0.74000000  0.26000000  1
  O  O98  1  0.26000000  0.08400000  0.91600000  1
  O  O99  1  0.26000000  0.91000000  0.09000000  1
  O  O100  1  0.08400000  0.26000000  0.74000000  1
  O  O101  1  0.91000000  0.26000000  0.74000000  1
  O  O102  1  0.91600000  0.08400000  0.74000000  1
  O  O103  1  0.09000000  0.91000000  0.74000000  1
  O  O104  1  0.74000000  0.26000000  0.91600000  1
  O  O105  1  0.74000000  0.26000000  0.09000000  1
  O  O106  1  0.08400000  0.91600000  0.26000000  1
  O  O107  1  0.91000000  0.09000000  0.26000000  1
  O  O108  1  0.26000000  0.74000000  0.08400000  1
  O  O109  1  0.26000000  0.74000000  0.91000000  1
  Zr  Zr110  1  0.11680000  0.88320000  0.88320000  1
  Zr  Zr111  1  0.88320000  0.11680000  0.11680000  1
  Zr  Zr112  1  0.88320000  0.88320000  0.11680000  1
  Zr  Zr113  1  0.11680000  0.11680000  0.88320000  1
  Zr  Zr114  1  0.88320000  0.11680000  0.88320000  1
  Zr  Zr115  1  0.11680000  0.88320000  0.11680000  1
