# generated using pymatgen
data_Zr3H36(C15O4)4
_symmetry_space_group_name_H-M   'P 1'
_cell_length_a   23.07430848
_cell_length_b   23.07430848
_cell_length_c   23.07430848
_cell_angle_alpha   60.00000000
_cell_angle_beta   60.00000000
_cell_angle_gamma   60.00000000
_symmetry_Int_Tables_number   1
_chemical_formula_structural   Zr3H36(C15O4)4
_chemical_formula_sum   'Zr6 H72 C120 O32'
_cell_volume   8687.02528499
_cell_formula_units_Z   2
loop_
 _symmetry_equiv_pos_site_id
 _symmetry_equiv_pos_as_xyz
  1  'x, y, z'
loop_
 _atom_site_type_symbol
 _atom_site_label
 _atom_site_symmetry_multiplicity
 _atom_site_fract_x
 _atom_site_fract_y
 _atom_site_fract_z
 _atom_site_occupancy
  C  C0  1  1.00000000  0.80680000  0.00000000  1
  C  C1  1  0.05070000  0.71410000  0.94930000  1
  C  C2  1  0.00000000  0.74320000  1.00000000  1
  C  C3  1  1.00000000  0.62300000  0.00000000  1
  C  C4  1  0.05200000  0.65660000  0.94800000  1
  C  C5  1  1.00000000  0.55700000  0.00000000  1
  C  C6  1  0.94530000  0.53410000  0.05470000  1
  C  C7  1  0.94930000  0.71410000  0.05070000  1
  C  C8  1  0.94800000  0.65660000  0.05200000  1
  C  C9  1  0.05470000  0.53410000  0.94530000  1
  C  C10  1  0.00000000  0.19320000  0.00000000  1
  C  C11  1  0.94930000  0.28590000  0.05070000  1
  C  C12  1  1.00000000  0.25680000  0.00000000  1
  C  C13  1  1.00000000  0.37700000  0.00000000  1
  C  C14  1  0.94800000  0.34340000  0.05200000  1
  C  C15  1  1.00000000  0.44300000  0.00000000  1
  C  C16  1  0.05470000  0.46590000  0.94530000  1
  C  C17  1  0.05070000  0.28590000  0.94930000  1
  C  C18  1  0.05200000  0.34340000  0.94800000  1
  C  C19  1  0.94530000  0.46590000  0.05470000  1
  C  C20  1  0.19320000  0.00000000  0.80680000  1
  C  C21  1  0.28590000  0.94930000  0.71410000  1
  C  C22  1  0.25680000  0.00000000  0.74320000  1
  C  C23  1  0.37700000  0.00000000  0.62300000  1
  C  C24  1  0.34340000  0.94800000  0.65660000  1
  C  C25  1  0.44300000  0.00000000  0.55700000  1
  C  C26  1  0.46590000  0.05470000  0.53410000  1
  C  C27  1  0.28590000  0.05070000  0.71410000  1
  C  C28  1  0.34340000  0.05200000  0.65660000  1
  C  C29  1  0.46590000  0.94530000  0.53410000  1
  C  C30  1  0.80680000  0.00000000  0.19320000  1
  C  C31  1  0.71410000  0.05070000  0.28590000  1
  C  C32  1  0.74320000  0.00000000  0.25680000  1
  C  C33  1  0.62300000  0.00000000  0.37700000  1
  C  C34  1  0.65660000  0.05200000  0.34340000  1
  C  C35  1  0.55700000  0.00000000  0.44300000  1
  C  C36  1  0.53410000  0.94530000  0.46590000  1
  C  C37  1  0.71410000  0.94930000  0.28590000  1
  C  C38  1  0.65660000  0.94800000  0.34340000  1
  C  C39  1  0.53410000  0.05470000  0.46590000  1
  C  C40  1  0.80680000  0.00000000  0.00000000  1
  C  C41  1  0.71410000  0.94930000  0.05070000  1
  C  C42  1  0.74320000  1.00000000  1.00000000  1
  C  C43  1  0.62300000  0.00000000  0.00000000  1
  C  C44  1  0.65660000  0.94800000  0.05200000  1
  C  C45  1  0.55700000  0.00000000  0.00000000  1
  C  C46  1  0.53410000  0.05470000  0.94530000  1
  C  C47  1  0.71410000  0.05070000  0.94930000  1
  C  C48  1  0.65660000  0.05200000  0.94800000  1
  C  C49  1  0.53410000  0.94530000  0.05470000  1
  C  C50  1  0.19320000  0.00000000  0.00000000  1
  C  C51  1  0.28590000  0.05070000  0.94930000  1
  C  C52  1  0.25680000  0.00000000  0.00000000  1
  C  C53  1  0.37700000  0.00000000  0.00000000  1
  C  C54  1  0.34340000  0.05200000  0.94800000  1
  C  C55  1  0.44300000  0.00000000  0.00000000  1
  C  C56  1  0.46590000  0.94530000  0.05470000  1
  C  C57  1  0.28590000  0.94930000  0.05070000  1
  C  C58  1  0.34340000  0.94800000  0.05200000  1
  C  C59  1  0.46590000  0.05470000  0.94530000  1
  C  C60  1  1.00000000  0.00000000  0.80680000  1
  C  C61  1  0.05070000  0.94930000  0.71410000  1
  C  C62  1  1.00000000  0.00000000  0.74320000  1
  C  C63  1  1.00000000  0.00000000  0.62300000  1
  C  C64  1  0.05200000  0.94800000  0.65660000  1
  C  C65  1  1.00000000  0.00000000  0.55700000  1
  C  C66  1  0.94530000  0.05470000  0.53410000  1
  C  C67  1  0.94930000  0.05070000  0.71410000  1
  C  C68  1  0.94800000  0.05200000  0.65660000  1
  C  C69  1  0.05470000  0.94530000  0.53410000  1
  C  C70  1  0.00000000  0.00000000  0.19320000  1
  C  C71  1  0.94930000  0.05070000  0.28590000  1
  C  C72  1  0.00000000  0.00000000  0.25680000  1
  C  C73  1  1.00000000  0.00000000  0.37700000  1
  C  C74  1  0.94800000  0.05200000  0.34340000  1
  C  C75  1  1.00000000  0.00000000  0.44300000  1
  C  C76  1  0.05470000  0.94530000  0.46590000  1
  C  C77  1  0.05070000  0.94930000  0.28590000  1
  C  C78  1  0.05200000  0.94800000  0.34340000  1
  C  C79  1  0.94530000  0.05470000  0.46590000  1
  C  C80  1  0.19320000  0.80680000  0.00000000  1
  C  C81  1  0.28590000  0.71410000  0.94930000  1
  C  C82  1  0.25680000  0.74320000  0.00000000  1
  C  C83  1  0.37700000  0.62300000  0.00000000  1
  C  C84  1  0.34340000  0.65660000  0.94800000  1
  C  C85  1  0.44300000  0.55700000  0.00000000  1
  C  C86  1  0.46590000  0.53410000  0.05470000  1
  C  C87  1  0.28590000  0.71410000  0.05070000  1
  C  C88  1  0.34340000  0.65660000  0.05200000  1
  C  C89  1  0.46590000  0.53410000  0.94530000  1
  C  C90  1  0.80680000  0.19320000  0.00000000  1
  C  C91  1  0.71410000  0.28590000  0.05070000  1
  C  C92  1  0.74320000  0.25680000  0.00000000  1
  C  C93  1  0.62300000  0.37700000  0.00000000  1
  C  C94  1  0.65660000  0.34340000  0.05200000  1
  C  C95  1  0.55700000  0.44300000  0.00000000  1
  C  C96  1  0.53410000  0.46590000  0.94530000  1
  C  C97  1  0.71410000  0.28590000  0.94930000  1
  C  C98  1  0.65660000  0.34340000  0.94800000  1
  C  C99  1  0.53410000  0.46590000  0.05470000  1
  C  C100  1  0.00000000  0.19320000  0.80680000  1
  C  C101  1  0.94930000  0.28590000  0.71410000  1
  C  C102  1  0.00000000  0.25680000  0.74320000  1
  C  C103  1  0.00000000  0.37700000  0.62300000  1
  C  C104  1  0.94800000  0.34340000  0.65660000  1
  C  C105  1  0.00000000  0.44300000  0.55700000  1
  C  C106  1  0.05470000  0.46590000  0.53410000  1
  C  C107  1  0.05070000  0.28590000  0.71410000  1
  C  C108  1  0.05200000  0.34340000  0.65660000  1
  C  C109  1  0.94530000  0.46590000  0.53410000  1
  C  C110  1  0.00000000  0.80680000  0.19320000  1
  C  C111  1  0.05070000  0.71410000  0.28590000  1
  C  C112  1  1.00000000  0.74320000  0.25680000  1
  C  C113  1  0.00000000  0.62300000  0.37700000  1
  C  C114  1  0.05200000  0.65660000  0.34340000  1
  C  C115  1  0.00000000  0.55700000  0.44300000  1
  C  C116  1  0.94530000  0.53410000  0.46590000  1
  C  C117  1  0.94930000  0.71410000  0.28590000  1
  C  C118  1  0.94800000  0.65660000  0.34340000  1
  C  C119  1  0.05470000  0.53410000  0.46590000  1
  H  H120  1  0.08610000  0.73510000  0.91390000  1
  H  H121  1  0.08840000  0.63740000  0.91160000  1
  H  H122  1  0.91100000  0.55680000  0.08900000  1
  H  H123  1  0.91390000  0.73510000  0.08610000  1
  H  H124  1  0.91160000  0.63740000  0.08840000  1
  H  H125  1  0.08900000  0.55680000  0.91100000  1
  H  H126  1  0.91390000  0.26490000  0.08610000  1
  H  H127  1  0.91160000  0.36260000  0.08840000  1
  H  H128  1  0.08900000  0.44320000  0.91100000  1
  H  H129  1  0.08610000  0.26490000  0.91390000  1
  H  H130  1  0.08840000  0.36260000  0.91160000  1
  H  H131  1  0.91100000  0.44320000  0.08900000  1
  H  H132  1  0.26490000  0.91390000  0.73510000  1
  H  H133  1  0.36260000  0.91160000  0.63740000  1
  H  H134  1  0.44320000  0.08900000  0.55680000  1
  H  H135  1  0.26490000  0.08610000  0.73510000  1
  H  H136  1  0.36260000  0.08840000  0.63740000  1
  H  H137  1  0.44320000  0.91100000  0.55680000  1
  H  H138  1  0.73510000  0.08610000  0.26490000  1
  H  H139  1  0.63740000  0.08840000  0.36260000  1
  H  H140  1  0.55680000  0.91100000  0.44320000  1
  H  H141  1  0.73510000  0.91390000  0.26490000  1
  H  H142  1  0.63740000  0.91160000  0.36260000  1
  H  H143  1  0.55680000  0.08900000  0.44320000  1
  H  H144  1  0.73510000  0.91390000  0.08610000  1
  H  H145  1  0.63740000  0.91160000  0.08840000  1
  H  H146  1  0.55680000  0.08900000  0.91100000  1
  H  H147  1  0.73510000  0.08610000  0.91390000  1
  H  H148  1  0.63740000  0.08840000  0.91160000  1
  H  H149  1  0.55680000  0.91100000  0.08900000  1
  H  H150  1  0.26490000  0.08610000  0.91390000  1
  H  H151  1  0.36260000  0.08840000  0.91160000  1
  H  H152  1  0.44320000  0.91100000  0.08900000  1
  H  H153  1  0.26490000  0.91390000  0.08610000  1
  H  H154  1  0.36260000  0.91160000  0.08840000  1
  H  H155  1  0.44320000  0.08900000  0.91100000  1
  H  H156  1  0.08610000  0.91390000  0.73510000  1
  H  H157  1  0.08840000  0.91160000  0.63740000  1
  H  H158  1  0.91100000  0.08900000  0.55680000  1
  H  H159  1  0.91390000  0.08610000  0.73510000  1
  H  H160  1  0.91160000  0.08840000  0.63740000  1
  H  H161  1  0.08900000  0.91100000  0.55680000  1
  H  H162  1  0.91390000  0.08610000  0.26490000  1
  H  H163  1  0.91160000  0.08840000  0.36260000  1
  H  H164  1  0.08900000  0.91100000  0.44320000  1
  H  H165  1  0.08610000  0.91390000  0.26490000  1
  H  H166  1  0.08840000  0.91160000  0.36260000  1
  H  H167  1  0.91100000  0.08900000  0.44320000  1
  H  H168  1  0.26490000  0.73510000  0.91390000  1
  H  H169  1  0.36260000  0.63740000  0.91160000  1
  H  H170  1  0.44320000  0.55680000  0.08900000  1
  H  H171  1  0.26490000  0.73510000  0.08610000  1
  H  H172  1  0.36260000  0.63740000  0.08840000  1
  H  H173  1  0.44320000  0.55680000  0.91100000  1
  H  H174  1  0.73510000  0.26490000  0.08610000  1
  H  H175  1  0.63740000  0.36260000  0.08840000  1
  H  H176  1  0.55680000  0.44320000  0.91100000  1
  H  H177  1  0.73510000  0.26490000  0.91390000  1
  H  H178  1  0.63740000  0.36260000  0.91160000  1
  H  H179  1  0.55680000  0.44320000  0.08900000  1
  H  H180  1  0.91390000  0.26490000  0.73510000  1
  H  H181  1  0.91160000  0.36260000  0.63740000  1
  H  H182  1  0.08900000  0.44320000  0.55680000  1
  H  H183  1  0.08610000  0.26490000  0.73510000  1
  H  H184  1  0.08840000  0.36260000  0.63740000  1
  H  H185  1  0.91100000  0.44320000  0.55680000  1
  H  H186  1  0.08610000  0.73510000  0.26490000  1
  H  H187  1  0.08840000  0.63740000  0.36260000  1
  H  H188  1  0.91100000  0.55680000  0.44320000  1
  H  H189  1  0.91390000  0.73510000  0.26490000  1
  H  H190  1  0.91160000  0.63740000  0.36260000  1
  H  H191  1  0.08900000  0.55680000  0.44320000  1
  O  O192  1  0.96300000  0.96300000  0.96300000  1
  O  O193  1  0.05050000  0.83230000  0.94950000  1
  O  O194  1  0.94950000  0.83230000  0.05050000  1
  O  O195  1  0.94950000  0.16770000  0.05050000  1
  O  O196  1  0.05050000  0.16770000  0.94950000  1
  O  O197  1  0.11100000  0.96300000  0.96300000  1
  O  O198  1  0.16770000  0.94950000  0.83230000  1
  O  O199  1  0.16770000  0.05050000  0.83230000  1
  O  O200  1  0.83230000  0.05050000  0.16770000  1
  O  O201  1  0.83230000  0.94950000  0.16770000  1
  O  O202  1  0.83230000  0.94950000  0.05050000  1
  O  O203  1  0.83230000  0.05050000  0.94950000  1
  O  O204  1  0.16770000  0.05050000  0.94950000  1
  O  O205  1  0.16770000  0.94950000  0.05050000  1
  O  O206  1  0.96300000  0.96300000  0.11100000  1
  O  O207  1  0.96300000  0.11100000  0.96300000  1
  O  O208  1  0.88900000  0.03700000  0.03700000  1
  O  O209  1  0.03700000  0.03700000  0.03700000  1
  O  O210  1  0.03700000  0.88900000  0.03700000  1
  O  O211  1  0.03700000  0.03700000  0.88900000  1
  O  O212  1  0.94950000  0.83230000  0.16770000  1
  O  O213  1  0.05050000  0.16770000  0.83230000  1
  O  O214  1  0.16770000  0.83230000  0.94950000  1
  O  O215  1  0.05050000  0.94950000  0.83230000  1
  O  O216  1  0.94950000  0.05050000  0.83230000  1
  O  O217  1  0.94950000  0.05050000  0.16770000  1
  O  O218  1  0.05050000  0.94950000  0.16770000  1
  O  O219  1  0.16770000  0.83230000  0.05050000  1
  O  O220  1  0.83230000  0.16770000  0.05050000  1
  O  O221  1  0.83230000  0.16770000  0.94950000  1
  O  O222  1  0.94950000  0.16770000  0.83230000  1
  O  O223  1  0.05050000  0.83230000  0.16770000  1
  Zr  Zr224  1  0.07585000  0.92415000  0.92415000  1
  Zr  Zr225  1  0.92415000  0.92415000  0.07585000  1
  Zr  Zr226  1  0.07585000  0.07585000  0.92415000  1
  Zr  Zr227  1  0.92415000  0.07585000  0.07585000  1
  Zr  Zr228  1  0.92415000  0.07585000  0.92415000  1
  Zr  Zr229  1  0.07585000  0.92415000  0.07585000  1
