# generated using pymatgen
data_Zr3Cu4H24C24I4(NO4)4
_symmetry_space_group_name_H-M   'P 1'
_cell_length_a   17.54110000
_cell_length_b   17.54110000
_cell_length_c   21.32660829
_cell_angle_alpha   114.28333002
_cell_angle_beta   114.28333002
_cell_angle_gamma   90.00000000
_symmetry_Int_Tables_number   1
_chemical_formula_structural   Zr3Cu4H24C24I4(NO4)4
_chemical_formula_sum   'Zr6 Cu8 H48 C48 I8 N8 O32'
_cell_volume   5338.04017006
_cell_formula_units_Z   2
loop_
 _symmetry_equiv_pos_site_id
 _symmetry_equiv_pos_as_xyz
  1  'x, y, z'
loop_
 _atom_site_type_symbol
 _atom_site_label
 _atom_site_symmetry_multiplicity
 _atom_site_fract_x
 _atom_site_fract_y
 _atom_site_fract_z
 _atom_site_occupancy
  C  C0  1  0.54042000  0.80932000  0.61864000  1
  C  C1  1  0.62447000  0.83757000  0.67514000  1
  C  C2  1  0.64044000  0.87544000  0.75088000  1
  C  C3  1  0.57389000  0.88379000  0.76758000  1
  C  C4  1  0.49181000  0.85381000  0.70762000  1
  C  C5  1  0.73183000  0.90693000  0.81386000  1
  C  C6  1  0.07822000  0.80932000  0.61864000  1
  C  C7  1  0.05067000  0.83757000  0.67514000  1
  C  C8  1  0.11044000  0.87544000  0.75088000  1
  C  C9  1  0.19369000  0.88379000  0.76758000  1
  C  C10  1  0.21581000  0.85381000  0.70762000  1
  C  C11  1  0.08203000  0.90693000  0.81386000  1
  C  C12  1  0.80932000  0.54042000  0.61864000  1
  C  C13  1  0.83757000  0.62447000  0.67514000  1
  C  C14  1  0.87544000  0.64044000  0.75088000  1
  C  C15  1  0.88379000  0.57389000  0.76758000  1
  C  C16  1  0.85381000  0.49181000  0.70762000  1
  C  C17  1  0.90693000  0.73183000  0.81386000  1
  C  C18  1  0.80932000  0.07822000  0.61864000  1
  C  C19  1  0.83757000  0.05067000  0.67514000  1
  C  C20  1  0.87544000  0.11044000  0.75088000  1
  C  C21  1  0.88379000  0.19369000  0.76758000  1
  C  C22  1  0.85381000  0.21581000  0.70762000  1
  C  C23  1  0.90693000  0.08203000  0.81386000  1
  C  C24  1  0.45958000  0.19068000  0.38136000  1
  C  C25  1  0.37553000  0.16243000  0.32486000  1
  C  C26  1  0.35956000  0.12456000  0.24912000  1
  C  C27  1  0.42611000  0.11621000  0.23242000  1
  C  C28  1  0.50819000  0.14619000  0.29238000  1
  C  C29  1  0.26817000  0.09307000  0.18614000  1
  C  C30  1  0.92178000  0.19068000  0.38136000  1
  C  C31  1  0.94933000  0.16243000  0.32486000  1
  C  C32  1  0.88956000  0.12456000  0.24912000  1
  C  C33  1  0.80631000  0.11621000  0.23242000  1
  C  C34  1  0.78419000  0.14619000  0.29238000  1
  C  C35  1  0.91797000  0.09307000  0.18614000  1
  C  C36  1  0.19068000  0.92178000  0.38136000  1
  C  C37  1  0.16243000  0.94933000  0.32486000  1
  C  C38  1  0.12456000  0.88956000  0.24912000  1
  C  C39  1  0.11621000  0.80631000  0.23242000  1
  C  C40  1  0.14619000  0.78419000  0.29238000  1
  C  C41  1  0.09307000  0.91797000  0.18614000  1
  C  C42  1  0.19068000  0.45958000  0.38136000  1
  C  C43  1  0.16243000  0.37553000  0.32486000  1
  C  C44  1  0.12456000  0.35956000  0.24912000  1
  C  C45  1  0.11621000  0.42611000  0.23242000  1
  C  C46  1  0.14619000  0.50819000  0.29238000  1
  C  C47  1  0.09307000  0.26817000  0.18614000  1
  Cu  Cu48  1  0.35174000  0.77671000  0.55342000  1
  Cu  Cu49  1  0.20168000  0.77671000  0.55342000  1
  Cu  Cu50  1  0.77671000  0.35174000  0.55342000  1
  Cu  Cu51  1  0.77671000  0.20168000  0.55342000  1
  Cu  Cu52  1  0.64826000  0.22329000  0.44658000  1
  Cu  Cu53  1  0.79832000  0.22329000  0.44658000  1
  Cu  Cu54  1  0.22329000  0.79832000  0.44658000  1
  Cu  Cu55  1  0.22329000  0.64826000  0.44658000  1
  H  H56  1  0.52910000  0.78300000  0.56600000  1
  H  H57  1  0.67020000  0.83080000  0.66160000  1
  H  H58  1  0.58310000  0.90980000  0.81960000  1
  H  H59  1  0.44530000  0.86000000  0.72000000  1
  H  H60  1  0.03690000  0.78300000  0.56600000  1
  H  H61  1  0.99140000  0.83080000  0.66160000  1
  H  H62  1  0.23650000  0.90980000  0.81960000  1
  H  H63  1  0.27470000  0.86000000  0.72000000  1
  H  H64  1  0.78300000  0.52910000  0.56600000  1
  H  H65  1  0.83080000  0.67020000  0.66160000  1
  H  H66  1  0.90980000  0.58310000  0.81960000  1
  H  H67  1  0.86000000  0.44530000  0.72000000  1
  H  H68  1  0.78300000  0.03690000  0.56600000  1
  H  H69  1  0.83080000  0.99140000  0.66160000  1
  H  H70  1  0.90980000  0.23650000  0.81960000  1
  H  H71  1  0.86000000  0.27470000  0.72000000  1
  H  H72  1  0.47090000  0.21700000  0.43400000  1
  H  H73  1  0.32980000  0.16920000  0.33840000  1
  H  H74  1  0.41690000  0.09020000  0.18040000  1
  H  H75  1  0.55470000  0.14000000  0.28000000  1
  H  H76  1  0.96310000  0.21700000  0.43400000  1
  H  H77  1  0.00860000  0.16920000  0.33840000  1
  H  H78  1  0.76350000  0.09020000  0.18040000  1
  H  H79  1  0.72530000  0.14000000  0.28000000  1
  H  H80  1  0.21700000  0.96310000  0.43400000  1
  H  H81  1  0.16920000  0.00860000  0.33840000  1
  H  H82  1  0.09020000  0.76350000  0.18040000  1
  H  H83  1  0.14000000  0.72530000  0.28000000  1
  H  H84  1  0.21700000  0.47090000  0.43400000  1
  H  H85  1  0.16920000  0.32980000  0.33840000  1
  H  H86  1  0.09020000  0.41690000  0.18040000  1
  H  H87  1  0.14000000  0.55470000  0.28000000  1
  H  H88  1  0.04990000  0.85350000  0.90340000  1
  H  H89  1  0.85350000  0.04990000  0.90340000  1
  H  H90  1  0.04990000  0.04990000  0.90340000  1
  H  H91  1  0.85350000  0.85350000  0.90340000  1
  H  H92  1  0.95010000  0.95010000  0.09660000  1
  H  H93  1  0.14650000  0.14650000  0.09660000  1
  H  H94  1  0.95010000  0.14650000  0.09660000  1
  H  H95  1  0.14650000  0.95010000  0.09660000  1
  H  H96  1  0.26790000  0.92380000  0.00000000  1
  H  H97  1  0.73210000  0.07620000  1.00000000  1
  H  H98  1  0.07620000  0.26790000  0.00000000  1
  H  H99  1  0.92380000  0.73210000  0.00000000  1
  H  H100  1  0.73210000  0.92380000  1.00000000  1
  H  H101  1  0.26790000  0.07620000  1.00000000  1
  H  H102  1  0.92380000  0.26790000  0.00000000  1
  H  H103  1  0.07620000  0.73210000  0.00000000  1
  I  I104  1  0.33777000  0.70625000  0.41250000  1
  I  I105  1  0.07473000  0.70625000  0.41250000  1
  I  I106  1  0.70625000  0.33777000  0.41250000  1
  I  I107  1  0.70625000  0.07473000  0.41250000  1
  I  I108  1  0.66223000  0.29375000  0.58750000  1
  I  I109  1  0.92527000  0.29375000  0.58750000  1
  I  I110  1  0.29375000  0.92527000  0.58750000  1
  I  I111  1  0.29375000  0.66223000  0.58750000  1
  N  N112  1  0.47494000  0.81774000  0.63548000  1
  N  N113  1  0.16054000  0.81774000  0.63548000  1
  N  N114  1  0.81774000  0.47494000  0.63548000  1
  N  N115  1  0.81774000  0.16054000  0.63548000  1
  N  N116  1  0.52506000  0.18226000  0.36452000  1
  N  N117  1  0.83946000  0.18226000  0.36452000  1
  N  N118  1  0.18226000  0.83946000  0.36452000  1
  N  N119  1  0.18226000  0.52506000  0.36452000  1
  O  O120  1  0.74140000  0.94101000  0.88202000  1
  O  O121  1  0.78932000  0.89645000  0.79290000  1
  O  O122  1  0.14062000  0.94101000  0.88202000  1
  O  O123  1  0.00358000  0.89645000  0.79290000  1
  O  O124  1  0.94101000  0.74140000  0.88202000  1
  O  O125  1  0.89645000  0.78932000  0.79290000  1
  O  O126  1  0.94101000  0.14062000  0.88202000  1
  O  O127  1  0.89645000  0.00358000  0.79290000  1
  O  O128  1  0.25860000  0.05899000  0.11798000  1
  O  O129  1  0.21068000  0.10355000  0.20710000  1
  O  O130  1  0.85938000  0.05899000  0.11798000  1
  O  O131  1  0.99642000  0.10355000  0.20710000  1
  O  O132  1  0.05899000  0.85938000  0.11798000  1
  O  O133  1  0.10355000  0.99642000  0.20710000  1
  O  O134  1  0.05899000  0.25860000  0.11798000  1
  O  O135  1  0.10355000  0.21068000  0.20710000  1
  O  O136  1  0.03690000  0.89410000  0.93100000  1
  O  O137  1  0.89410000  0.03690000  0.93100000  1
  O  O138  1  0.03690000  0.03690000  0.93100000  1
  O  O139  1  0.89410000  0.89410000  0.93100000  1
  O  O140  1  0.96310000  0.96310000  0.06900000  1
  O  O141  1  0.10590000  0.10590000  0.06900000  1
  O  O142  1  0.96310000  0.10590000  0.06900000  1
  O  O143  1  0.10590000  0.96310000  0.06900000  1
  O  O144  1  0.22460000  0.90610000  0.00000000  1
  O  O145  1  0.77540000  0.09390000  0.00000000  1
  O  O146  1  0.09390000  0.22460000  0.00000000  1
  O  O147  1  0.90610000  0.77540000  1.00000000  1
  O  O148  1  0.77540000  0.90610000  0.00000000  1
  O  O149  1  0.22460000  0.09390000  0.00000000  1
  O  O150  1  0.90610000  0.22460000  1.00000000  1
  O  O151  1  0.09390000  0.77540000  0.00000000  1
  Zr  Zr152  1  0.92941000  0.92941000  0.85882000  1
  Zr  Zr153  1  0.07059000  0.07059000  0.14118000  1
  Zr  Zr154  1  0.14249000  0.00000000  0.00000000  1
  Zr  Zr155  1  0.85751000  0.00000000  0.00000000  1
  Zr  Zr156  1  0.00000000  0.14249000  0.00000000  1
  Zr  Zr157  1  0.00000000  0.85751000  1.00000000  1
