# generated using pymatgen
data_Zr12H96Ir3C144N12(Cl3O32)2
_symmetry_space_group_name_H-M   'P 1'
_cell_length_a   33.24991955
_cell_length_b   33.24991955
_cell_length_c   33.24991955
_cell_angle_alpha   109.47122063
_cell_angle_beta   109.47122063
_cell_angle_gamma   109.47122063
_symmetry_Int_Tables_number   1
_chemical_formula_structural   Zr12H96Ir3C144N12(Cl3O32)2
_chemical_formula_sum   'Zr24 H192 Ir6 C288 N24 Cl12 O128'
_cell_volume   28297.61969402
_cell_formula_units_Z   2
loop_
 _symmetry_equiv_pos_site_id
 _symmetry_equiv_pos_as_xyz
  1  'x, y, z'
loop_
 _atom_site_type_symbol
 _atom_site_label
 _atom_site_symmetry_multiplicity
 _atom_site_fract_x
 _atom_site_fract_y
 _atom_site_fract_z
 _atom_site_occupancy
  C  C0  1  0.50949000  0.41312000  0.65597000  1
  C  C1  1  0.51079000  0.38799000  0.68200000  1
  C  C2  1  0.45544000  0.28032000  0.67812000  1
  C  C3  1  0.40811000  0.26963000  0.64288000  1
  C  C4  1  0.49051000  0.14648000  0.90363000  1
  C  C5  1  0.48921000  0.17121000  0.87720000  1
  C  C6  1  0.54456000  0.22268000  0.82488000  1
  C  C7  1  0.59189000  0.23477000  0.86152000  1
  C  C8  1  0.24285000  0.58688000  0.09637000  1
  C  C9  1  0.29401000  0.61201000  0.12280000  1
  C  C10  1  0.39780000  0.71968000  0.17512000  1
  C  C11  1  0.37325000  0.73037000  0.13848000  1
  C  C12  1  0.75715000  0.85352000  0.34403000  1
  C  C13  1  0.70599000  0.82879000  0.31800000  1
  C  C14  1  0.60220000  0.77732000  0.32188000  1
  C  C15  1  0.62675000  0.76523000  0.35712000  1
  C  C16  1  0.85352000  0.34403000  0.75715000  1
  C  C17  1  0.82879000  0.31800000  0.70599000  1
  C  C18  1  0.77732000  0.32188000  0.60220000  1
  C  C19  1  0.76523000  0.35712000  0.62675000  1
  C  C20  1  0.58688000  0.09637000  0.24285000  1
  C  C21  1  0.61201000  0.12280000  0.29401000  1
  C  C22  1  0.71968000  0.17512000  0.39780000  1
  C  C23  1  0.73037000  0.13848000  0.37325000  1
  C  C24  1  0.14648000  0.90363000  0.49051000  1
  C  C25  1  0.17121000  0.87720000  0.48921000  1
  C  C26  1  0.22268000  0.82488000  0.54456000  1
  C  C27  1  0.23477000  0.86152000  0.59189000  1
  C  C28  1  0.41312000  0.65597000  0.50949000  1
  C  C29  1  0.38799000  0.68200000  0.51079000  1
  C  C30  1  0.28032000  0.67812000  0.45544000  1
  C  C31  1  0.26963000  0.64288000  0.40811000  1
  C  C32  1  0.09637000  0.24285000  0.58688000  1
  C  C33  1  0.12280000  0.29401000  0.61201000  1
  C  C34  1  0.17512000  0.39780000  0.71968000  1
  C  C35  1  0.13848000  0.37325000  0.73037000  1
  C  C36  1  0.34403000  0.75715000  0.85352000  1
  C  C37  1  0.31800000  0.70599000  0.82879000  1
  C  C38  1  0.32188000  0.60220000  0.77732000  1
  C  C39  1  0.35712000  0.62675000  0.76523000  1
  C  C40  1  0.65597000  0.50949000  0.41312000  1
  C  C41  1  0.68200000  0.51079000  0.38799000  1
  C  C42  1  0.67812000  0.45544000  0.28032000  1
  C  C43  1  0.64288000  0.40811000  0.26963000  1
  C  C44  1  0.90363000  0.49051000  0.14648000  1
  C  C45  1  0.87720000  0.48921000  0.17121000  1
  C  C46  1  0.82488000  0.54456000  0.22268000  1
  C  C47  1  0.86152000  0.59189000  0.23477000  1
  C  C48  1  0.50949000  0.09637000  0.85352000  1
  C  C49  1  0.51079000  0.12280000  0.82879000  1
  C  C50  1  0.45544000  0.17512000  0.77732000  1
  C  C51  1  0.40811000  0.13848000  0.76523000  1
  C  C52  1  0.49051000  0.34403000  0.58688000  1
  C  C53  1  0.48921000  0.31800000  0.61201000  1
  C  C54  1  0.54456000  0.32188000  0.71968000  1
  C  C55  1  0.59189000  0.35712000  0.73037000  1
  C  C56  1  0.24285000  0.65597000  0.14648000  1
  C  C57  1  0.29401000  0.68200000  0.17121000  1
  C  C58  1  0.39780000  0.67812000  0.22268000  1
  C  C59  1  0.37325000  0.64288000  0.23477000  1
  C  C60  1  0.75715000  0.90363000  0.41312000  1
  C  C61  1  0.70599000  0.87720000  0.38799000  1
  C  C62  1  0.60220000  0.82488000  0.28032000  1
  C  C63  1  0.62675000  0.86152000  0.26963000  1
  C  C64  1  0.85352000  0.50949000  0.09637000  1
  C  C65  1  0.82879000  0.51079000  0.12280000  1
  C  C66  1  0.77732000  0.45544000  0.17512000  1
  C  C67  1  0.76523000  0.40811000  0.13848000  1
  C  C68  1  0.58688000  0.49051000  0.34403000  1
  C  C69  1  0.61201000  0.48921000  0.31800000  1
  C  C70  1  0.71968000  0.54456000  0.32188000  1
  C  C71  1  0.73037000  0.59189000  0.35712000  1
  C  C72  1  0.14648000  0.24285000  0.65597000  1
  C  C73  1  0.17121000  0.29401000  0.68200000  1
  C  C74  1  0.22268000  0.39780000  0.67812000  1
  C  C75  1  0.23477000  0.37325000  0.64288000  1
  C  C76  1  0.41312000  0.75715000  0.90363000  1
  C  C77  1  0.38799000  0.70599000  0.87720000  1
  C  C78  1  0.28032000  0.60220000  0.82488000  1
  C  C79  1  0.26963000  0.62675000  0.86152000  1
  C  C80  1  0.09637000  0.85352000  0.50949000  1
  C  C81  1  0.12280000  0.82879000  0.51079000  1
  C  C82  1  0.17512000  0.77732000  0.45544000  1
  C  C83  1  0.13848000  0.76523000  0.40811000  1
  C  C84  1  0.34403000  0.58688000  0.49051000  1
  C  C85  1  0.31800000  0.61201000  0.48921000  1
  C  C86  1  0.32188000  0.71968000  0.54456000  1
  C  C87  1  0.35712000  0.73037000  0.59189000  1
  C  C88  1  0.65597000  0.14648000  0.24285000  1
  C  C89  1  0.68200000  0.17121000  0.29401000  1
  C  C90  1  0.67812000  0.22268000  0.39780000  1
  C  C91  1  0.64288000  0.23477000  0.37325000  1
  C  C92  1  0.90363000  0.41312000  0.75715000  1
  C  C93  1  0.87720000  0.38799000  0.70599000  1
  C  C94  1  0.82488000  0.28032000  0.60220000  1
  C  C95  1  0.86152000  0.26963000  0.62675000  1
  C  C96  1  0.49051000  0.58688000  0.34403000  1
  C  C97  1  0.48921000  0.61201000  0.31800000  1
  C  C98  1  0.54456000  0.71968000  0.32188000  1
  C  C99  1  0.59189000  0.73037000  0.35712000  1
  C  C100  1  0.50949000  0.85352000  0.09637000  1
  C  C101  1  0.51079000  0.82879000  0.12280000  1
  C  C102  1  0.45544000  0.77732000  0.17512000  1
  C  C103  1  0.40811000  0.76523000  0.13848000  1
  C  C104  1  0.75715000  0.41312000  0.90363000  1
  C  C105  1  0.70599000  0.38799000  0.87720000  1
  C  C106  1  0.60220000  0.28032000  0.82488000  1
  C  C107  1  0.62675000  0.26963000  0.86152000  1
  C  C108  1  0.24285000  0.14648000  0.65597000  1
  C  C109  1  0.29401000  0.17121000  0.68200000  1
  C  C110  1  0.39780000  0.22268000  0.67812000  1
  C  C111  1  0.37325000  0.23477000  0.64288000  1
  C  C112  1  0.14648000  0.65597000  0.24285000  1
  C  C113  1  0.17121000  0.68200000  0.29401000  1
  C  C114  1  0.22268000  0.67812000  0.39780000  1
  C  C115  1  0.23477000  0.64288000  0.37325000  1
  C  C116  1  0.41312000  0.90363000  0.75715000  1
  C  C117  1  0.38799000  0.87720000  0.70599000  1
  C  C118  1  0.28032000  0.82488000  0.60220000  1
  C  C119  1  0.26963000  0.86152000  0.62675000  1
  C  C120  1  0.85352000  0.09637000  0.50949000  1
  C  C121  1  0.82879000  0.12280000  0.51079000  1
  C  C122  1  0.77732000  0.17512000  0.45544000  1
  C  C123  1  0.76523000  0.13848000  0.40811000  1
  C  C124  1  0.58688000  0.34403000  0.49051000  1
  C  C125  1  0.61201000  0.31800000  0.48921000  1
  C  C126  1  0.71968000  0.32188000  0.54456000  1
  C  C127  1  0.73037000  0.35712000  0.59189000  1
  C  C128  1  0.90363000  0.75715000  0.41312000  1
  C  C129  1  0.87720000  0.70599000  0.38799000  1
  C  C130  1  0.82488000  0.60220000  0.28032000  1
  C  C131  1  0.86152000  0.62675000  0.26963000  1
  C  C132  1  0.65597000  0.24285000  0.14648000  1
  C  C133  1  0.68200000  0.29401000  0.17121000  1
  C  C134  1  0.67812000  0.39780000  0.22268000  1
  C  C135  1  0.64288000  0.37325000  0.23477000  1
  C  C136  1  0.34403000  0.49051000  0.58688000  1
  C  C137  1  0.31800000  0.48921000  0.61201000  1
  C  C138  1  0.32188000  0.54456000  0.71968000  1
  C  C139  1  0.35712000  0.59189000  0.73037000  1
  C  C140  1  0.09637000  0.50949000  0.85352000  1
  C  C141  1  0.12280000  0.51079000  0.82879000  1
  C  C142  1  0.17512000  0.45544000  0.77732000  1
  C  C143  1  0.13848000  0.40811000  0.76523000  1
  C  C144  1  0.49051000  0.90363000  0.14648000  1
  C  C145  1  0.48921000  0.87720000  0.17121000  1
  C  C146  1  0.54456000  0.82488000  0.22268000  1
  C  C147  1  0.59189000  0.86152000  0.23477000  1
  C  C148  1  0.50949000  0.65597000  0.41312000  1
  C  C149  1  0.51079000  0.68200000  0.38799000  1
  C  C150  1  0.45544000  0.67812000  0.28032000  1
  C  C151  1  0.40811000  0.64288000  0.26963000  1
  C  C152  1  0.75715000  0.34403000  0.85352000  1
  C  C153  1  0.70599000  0.31800000  0.82879000  1
  C  C154  1  0.60220000  0.32188000  0.77732000  1
  C  C155  1  0.62675000  0.35712000  0.76523000  1
  C  C156  1  0.24285000  0.09637000  0.58688000  1
  C  C157  1  0.29401000  0.12280000  0.61201000  1
  C  C158  1  0.39780000  0.17512000  0.71968000  1
  C  C159  1  0.37325000  0.13848000  0.73037000  1
  C  C160  1  0.14648000  0.49051000  0.90363000  1
  C  C161  1  0.17121000  0.48921000  0.87720000  1
  C  C162  1  0.22268000  0.54456000  0.82488000  1
  C  C163  1  0.23477000  0.59189000  0.86152000  1
  C  C164  1  0.41312000  0.50949000  0.65597000  1
  C  C165  1  0.38799000  0.51079000  0.68200000  1
  C  C166  1  0.28032000  0.45544000  0.67812000  1
  C  C167  1  0.26963000  0.40811000  0.64288000  1
  C  C168  1  0.85352000  0.75715000  0.34403000  1
  C  C169  1  0.82879000  0.70599000  0.31800000  1
  C  C170  1  0.77732000  0.60220000  0.32188000  1
  C  C171  1  0.76523000  0.62675000  0.35712000  1
  C  C172  1  0.58688000  0.24285000  0.09637000  1
  C  C173  1  0.61201000  0.29401000  0.12280000  1
  C  C174  1  0.71968000  0.39780000  0.17512000  1
  C  C175  1  0.73037000  0.37325000  0.13848000  1
  C  C176  1  0.90363000  0.14648000  0.49051000  1
  C  C177  1  0.87720000  0.17121000  0.48921000  1
  C  C178  1  0.82488000  0.22268000  0.54456000  1
  C  C179  1  0.86152000  0.23477000  0.59189000  1
  C  C180  1  0.65597000  0.41312000  0.50949000  1
  C  C181  1  0.68200000  0.38799000  0.51079000  1
  C  C182  1  0.67812000  0.28032000  0.45544000  1
  C  C183  1  0.64288000  0.26963000  0.40811000  1
  C  C184  1  0.34403000  0.85352000  0.75715000  1
  C  C185  1  0.31800000  0.82879000  0.70599000  1
  C  C186  1  0.32188000  0.77732000  0.60220000  1
  C  C187  1  0.35712000  0.76523000  0.62675000  1
  C  C188  1  0.09637000  0.58688000  0.24285000  1
  C  C189  1  0.12280000  0.61201000  0.29401000  1
  C  C190  1  0.17512000  0.71968000  0.39780000  1
  C  C191  1  0.13848000  0.73037000  0.37325000  1
  C  C192  1  0.50000000  0.41931000  0.58069000  1
  C  C193  1  0.50000000  0.39101000  0.60899000  1
  C  C194  1  0.50000000  0.34039000  0.65961000  1
  C  C195  1  0.50000000  0.31278000  0.68722000  1
  C  C196  1  0.50000000  0.08069000  0.91931000  1
  C  C197  1  0.50000000  0.10899000  0.89101000  1
  C  C198  1  0.50000000  0.15961000  0.84039000  1
  C  C199  1  0.50000000  0.18722000  0.81278000  1
  C  C200  1  0.16138000  0.58069000  0.08069000  1
  C  C201  1  0.21798000  0.60899000  0.10899000  1
  C  C202  1  0.31922000  0.65961000  0.15961000  1
  C  C203  1  0.37444000  0.68722000  0.18722000  1
  C  C204  1  0.83862000  0.91931000  0.41931000  1
  C  C205  1  0.78202000  0.89101000  0.39101000  1
  C  C206  1  0.68078000  0.84039000  0.34039000  1
  C  C207  1  0.62556000  0.81278000  0.31278000  1
  C  C208  1  0.91931000  0.41931000  0.83862000  1
  C  C209  1  0.89101000  0.39101000  0.78202000  1
  C  C210  1  0.84039000  0.34039000  0.68078000  1
  C  C211  1  0.81278000  0.31278000  0.62556000  1
  C  C212  1  0.58069000  0.08069000  0.16138000  1
  C  C213  1  0.60899000  0.10899000  0.21798000  1
  C  C214  1  0.65961000  0.15961000  0.31922000  1
  C  C215  1  0.68722000  0.18722000  0.37444000  1
  C  C216  1  0.08069000  0.91931000  0.50000000  1
  C  C217  1  0.10899000  0.89101000  0.50000000  1
  C  C218  1  0.15961000  0.84039000  0.50000000  1
  C  C219  1  0.18722000  0.81278000  0.50000000  1
  C  C220  1  0.41931000  0.58069000  0.50000000  1
  C  C221  1  0.39101000  0.60899000  0.50000000  1
  C  C222  1  0.34039000  0.65961000  0.50000000  1
  C  C223  1  0.31278000  0.68722000  0.50000000  1
  C  C224  1  0.08069000  0.16138000  0.58069000  1
  C  C225  1  0.10899000  0.21798000  0.60899000  1
  C  C226  1  0.15961000  0.31922000  0.65961000  1
  C  C227  1  0.18722000  0.37444000  0.68722000  1
  C  C228  1  0.41931000  0.83862000  0.91931000  1
  C  C229  1  0.39101000  0.78202000  0.89101000  1
  C  C230  1  0.34039000  0.68078000  0.84039000  1
  C  C231  1  0.31278000  0.62556000  0.81278000  1
  C  C232  1  0.58069000  0.50000000  0.41931000  1
  C  C233  1  0.60899000  0.50000000  0.39101000  1
  C  C234  1  0.65961000  0.50000000  0.34039000  1
  C  C235  1  0.68722000  0.50000000  0.31278000  1
  C  C236  1  0.91931000  0.50000000  0.08069000  1
  C  C237  1  0.89101000  0.50000000  0.10899000  1
  C  C238  1  0.84039000  0.50000000  0.15961000  1
  C  C239  1  0.81278000  0.50000000  0.18722000  1
  C  C240  1  0.50000000  0.58069000  0.41931000  1
  C  C241  1  0.50000000  0.60899000  0.39101000  1
  C  C242  1  0.50000000  0.65961000  0.34039000  1
  C  C243  1  0.50000000  0.68722000  0.31278000  1
  C  C244  1  0.50000000  0.91931000  0.08069000  1
  C  C245  1  0.50000000  0.89101000  0.10899000  1
  C  C246  1  0.50000000  0.84039000  0.15961000  1
  C  C247  1  0.50000000  0.81278000  0.18722000  1
  C  C248  1  0.83862000  0.41931000  0.91931000  1
  C  C249  1  0.78202000  0.39101000  0.89101000  1
  C  C250  1  0.68078000  0.34039000  0.84039000  1
  C  C251  1  0.62556000  0.31278000  0.81278000  1
  C  C252  1  0.16138000  0.08069000  0.58069000  1
  C  C253  1  0.21798000  0.10899000  0.60899000  1
  C  C254  1  0.31922000  0.15961000  0.65961000  1
  C  C255  1  0.37444000  0.18722000  0.68722000  1
  C  C256  1  0.08069000  0.58069000  0.16138000  1
  C  C257  1  0.10899000  0.60899000  0.21798000  1
  C  C258  1  0.15961000  0.65961000  0.31922000  1
  C  C259  1  0.18722000  0.68722000  0.37444000  1
  C  C260  1  0.41931000  0.91931000  0.83862000  1
  C  C261  1  0.39101000  0.89101000  0.78202000  1
  C  C262  1  0.34039000  0.84039000  0.68078000  1
  C  C263  1  0.31278000  0.81278000  0.62556000  1
  C  C264  1  0.91931000  0.08069000  0.50000000  1
  C  C265  1  0.89101000  0.10899000  0.50000000  1
  C  C266  1  0.84039000  0.15961000  0.50000000  1
  C  C267  1  0.81278000  0.18722000  0.50000000  1
  C  C268  1  0.58069000  0.41931000  0.50000000  1
  C  C269  1  0.60899000  0.39101000  0.50000000  1
  C  C270  1  0.65961000  0.34039000  0.50000000  1
  C  C271  1  0.68722000  0.31278000  0.50000000  1
  C  C272  1  0.91931000  0.83862000  0.41931000  1
  C  C273  1  0.89101000  0.78202000  0.39101000  1
  C  C274  1  0.84039000  0.68078000  0.34039000  1
  C  C275  1  0.81278000  0.62556000  0.31278000  1
  C  C276  1  0.58069000  0.16138000  0.08069000  1
  C  C277  1  0.60899000  0.21798000  0.10899000  1
  C  C278  1  0.65961000  0.31922000  0.15961000  1
  C  C279  1  0.68722000  0.37444000  0.18722000  1
  C  C280  1  0.41931000  0.50000000  0.58069000  1
  C  C281  1  0.39101000  0.50000000  0.60899000  1
  C  C282  1  0.34039000  0.50000000  0.65961000  1
  C  C283  1  0.31278000  0.50000000  0.68722000  1
  C  C284  1  0.08069000  0.50000000  0.91931000  1
  C  C285  1  0.10899000  0.50000000  0.89101000  1
  C  C286  1  0.15961000  0.50000000  0.84039000  1
  C  C287  1  0.18722000  0.50000000  0.81278000  1
  Cl  Cl288  1  0.50000000  0.31010000  0.81010000  1
  Cl  Cl289  1  0.50000000  0.68990000  0.18990000  1
  Cl  Cl290  1  0.68990000  0.18990000  0.50000000  1
  Cl  Cl291  1  0.31010000  0.81010000  0.50000000  1
  Cl  Cl292  1  0.18990000  0.50000000  0.68990000  1
  Cl  Cl293  1  0.81010000  0.50000000  0.31010000  1
  Cl  Cl294  1  0.50000000  0.18990000  0.68990000  1
  Cl  Cl295  1  0.50000000  0.81010000  0.31010000  1
  Cl  Cl296  1  0.68990000  0.50000000  0.18990000  1
  Cl  Cl297  1  0.31010000  0.50000000  0.81010000  1
  Cl  Cl298  1  0.18990000  0.68990000  0.50000000  1
  Cl  Cl299  1  0.81010000  0.31010000  0.50000000  1
  H  H300  1  0.51641000  0.45232000  0.67419000  1
  H  H301  1  0.52093000  0.40731000  0.72226000  1
  H  H302  1  0.40622000  0.29009000  0.62139000  1
  H  H303  1  0.43108000  0.38164000  0.44972000  1
  H  H304  1  0.48359000  0.15778000  0.93591000  1
  H  H305  1  0.47907000  0.20133000  0.88638000  1
  H  H306  1  0.59378000  0.21517000  0.88387000  1
  H  H307  1  0.56892000  0.01864000  0.95056000  1
  H  H308  1  0.22187000  0.54768000  0.06409000  1
  H  H309  1  0.31495000  0.59269000  0.11362000  1
  H  H310  1  0.33130000  0.70991000  0.11613000  1
  H  H311  1  0.06808000  0.61836000  0.04944000  1
  H  H312  1  0.77813000  0.84222000  0.32581000  1
  H  H313  1  0.68505000  0.79867000  0.27774000  1
  H  H314  1  0.66870000  0.78483000  0.37861000  1
  H  H315  1  0.93192000  0.98136000  0.55028000  1
  H  H316  1  0.84222000  0.32581000  0.77813000  1
  H  H317  1  0.79867000  0.27774000  0.68505000  1
  H  H318  1  0.78483000  0.37861000  0.66870000  1
  H  H319  1  0.98136000  0.55028000  0.93192000  1
  H  H320  1  0.54768000  0.06409000  0.22187000  1
  H  H321  1  0.59269000  0.11362000  0.31495000  1
  H  H322  1  0.70991000  0.11613000  0.33130000  1
  H  H323  1  0.61836000  0.04944000  0.06808000  1
  H  H324  1  0.15778000  0.93591000  0.48359000  1
  H  H325  1  0.20133000  0.88638000  0.47907000  1
  H  H326  1  0.21517000  0.88387000  0.59378000  1
  H  H327  1  0.01864000  0.95056000  0.56892000  1
  H  H328  1  0.45232000  0.67419000  0.51641000  1
  H  H329  1  0.40731000  0.72226000  0.52093000  1
  H  H330  1  0.29009000  0.62139000  0.40622000  1
  H  H331  1  0.38164000  0.44972000  0.43108000  1
  H  H332  1  0.06409000  0.22187000  0.54768000  1
  H  H333  1  0.11362000  0.31495000  0.59269000  1
  H  H334  1  0.11613000  0.33130000  0.70991000  1
  H  H335  1  0.04944000  0.06808000  0.61836000  1
  H  H336  1  0.32581000  0.77813000  0.84222000  1
  H  H337  1  0.27774000  0.68505000  0.79867000  1
  H  H338  1  0.37861000  0.66870000  0.78483000  1
  H  H339  1  0.55028000  0.93192000  0.98136000  1
  H  H340  1  0.67419000  0.51641000  0.45232000  1
  H  H341  1  0.72226000  0.52093000  0.40731000  1
  H  H342  1  0.62139000  0.40622000  0.29009000  1
  H  H343  1  0.44972000  0.43108000  0.38164000  1
  H  H344  1  0.93591000  0.48359000  0.15778000  1
  H  H345  1  0.88638000  0.47907000  0.20133000  1
  H  H346  1  0.88387000  0.59378000  0.21517000  1
  H  H347  1  0.95056000  0.56892000  0.01864000  1
  H  H348  1  0.51641000  0.06409000  0.84222000  1
  H  H349  1  0.52093000  0.11362000  0.79867000  1
  H  H350  1  0.40622000  0.11613000  0.78483000  1
  H  H351  1  0.43108000  0.04944000  0.98136000  1
  H  H352  1  0.48359000  0.32581000  0.54768000  1
  H  H353  1  0.47907000  0.27774000  0.59269000  1
  H  H354  1  0.59378000  0.37861000  0.70991000  1
  H  H355  1  0.56892000  0.55028000  0.61836000  1
  H  H356  1  0.22187000  0.67419000  0.15778000  1
  H  H357  1  0.31495000  0.72226000  0.20133000  1
  H  H358  1  0.33130000  0.62139000  0.21517000  1
  H  H359  1  0.06808000  0.44972000  0.01864000  1
  H  H360  1  0.77813000  0.93591000  0.45232000  1
  H  H361  1  0.68505000  0.88638000  0.40731000  1
  H  H362  1  0.66870000  0.88387000  0.29009000  1
  H  H363  1  0.93192000  0.95056000  0.38164000  1
  H  H364  1  0.84222000  0.51641000  0.06409000  1
  H  H365  1  0.79867000  0.52093000  0.11362000  1
  H  H366  1  0.78483000  0.40622000  0.11613000  1
  H  H367  1  0.98136000  0.43108000  0.04944000  1
  H  H368  1  0.54768000  0.48359000  0.32581000  1
  H  H369  1  0.59269000  0.47907000  0.27774000  1
  H  H370  1  0.70991000  0.59378000  0.37861000  1
  H  H371  1  0.61836000  0.56892000  0.55028000  1
  H  H372  1  0.15778000  0.22187000  0.67419000  1
  H  H373  1  0.20133000  0.31495000  0.72226000  1
  H  H374  1  0.21517000  0.33130000  0.62139000  1
  H  H375  1  0.01864000  0.06808000  0.44972000  1
  H  H376  1  0.45232000  0.77813000  0.93591000  1
  H  H377  1  0.40731000  0.68505000  0.88638000  1
  H  H378  1  0.29009000  0.66870000  0.88387000  1
  H  H379  1  0.38164000  0.93192000  0.95056000  1
  H  H380  1  0.06409000  0.84222000  0.51641000  1
  H  H381  1  0.11362000  0.79867000  0.52093000  1
  H  H382  1  0.11613000  0.78483000  0.40622000  1
  H  H383  1  0.04944000  0.98136000  0.43108000  1
  H  H384  1  0.32581000  0.54768000  0.48359000  1
  H  H385  1  0.27774000  0.59269000  0.47907000  1
  H  H386  1  0.37861000  0.70991000  0.59378000  1
  H  H387  1  0.55028000  0.61836000  0.56892000  1
  H  H388  1  0.67419000  0.15778000  0.22187000  1
  H  H389  1  0.72226000  0.20133000  0.31495000  1
  H  H390  1  0.62139000  0.21517000  0.33130000  1
  H  H391  1  0.44972000  0.01864000  0.06808000  1
  H  H392  1  0.93591000  0.45232000  0.77813000  1
  H  H393  1  0.88638000  0.40731000  0.68505000  1
  H  H394  1  0.88387000  0.29009000  0.66870000  1
  H  H395  1  0.95056000  0.38164000  0.93192000  1
  H  H396  1  0.48359000  0.54768000  0.32581000  1
  H  H397  1  0.47907000  0.59269000  0.27774000  1
  H  H398  1  0.59378000  0.70991000  0.37861000  1
  H  H399  1  0.56892000  0.61836000  0.55028000  1
  H  H400  1  0.51641000  0.84222000  0.06409000  1
  H  H401  1  0.52093000  0.79867000  0.11362000  1
  H  H402  1  0.40622000  0.78483000  0.11613000  1
  H  H403  1  0.43108000  0.98136000  0.04944000  1
  H  H404  1  0.77813000  0.45232000  0.93591000  1
  H  H405  1  0.68505000  0.40731000  0.88638000  1
  H  H406  1  0.66870000  0.29009000  0.88387000  1
  H  H407  1  0.93192000  0.38164000  0.95056000  1
  H  H408  1  0.22187000  0.15778000  0.67419000  1
  H  H409  1  0.31495000  0.20133000  0.72226000  1
  H  H410  1  0.33130000  0.21517000  0.62139000  1
  H  H411  1  0.06808000  0.01864000  0.44972000  1
  H  H412  1  0.15778000  0.67419000  0.22187000  1
  H  H413  1  0.20133000  0.72226000  0.31495000  1
  H  H414  1  0.21517000  0.62139000  0.33130000  1
  H  H415  1  0.01864000  0.44972000  0.06808000  1
  H  H416  1  0.45232000  0.93591000  0.77813000  1
  H  H417  1  0.40731000  0.88638000  0.68505000  1
  H  H418  1  0.29009000  0.88387000  0.66870000  1
  H  H419  1  0.38164000  0.95056000  0.93192000  1
  H  H420  1  0.84222000  0.06409000  0.51641000  1
  H  H421  1  0.79867000  0.11362000  0.52093000  1
  H  H422  1  0.78483000  0.11613000  0.40622000  1
  H  H423  1  0.98136000  0.04944000  0.43108000  1
  H  H424  1  0.54768000  0.32581000  0.48359000  1
  H  H425  1  0.59269000  0.27774000  0.47907000  1
  H  H426  1  0.70991000  0.37861000  0.59378000  1
  H  H427  1  0.61836000  0.55028000  0.56892000  1
  H  H428  1  0.93591000  0.77813000  0.45232000  1
  H  H429  1  0.88638000  0.68505000  0.40731000  1
  H  H430  1  0.88387000  0.66870000  0.29009000  1
  H  H431  1  0.95056000  0.93192000  0.38164000  1
  H  H432  1  0.67419000  0.22187000  0.15778000  1
  H  H433  1  0.72226000  0.31495000  0.20133000  1
  H  H434  1  0.62139000  0.33130000  0.21517000  1
  H  H435  1  0.44972000  0.06808000  0.01864000  1
  H  H436  1  0.32581000  0.48359000  0.54768000  1
  H  H437  1  0.27774000  0.47907000  0.59269000  1
  H  H438  1  0.37861000  0.59378000  0.70991000  1
  H  H439  1  0.55028000  0.56892000  0.61836000  1
  H  H440  1  0.06409000  0.51641000  0.84222000  1
  H  H441  1  0.11362000  0.52093000  0.79867000  1
  H  H442  1  0.11613000  0.40622000  0.78483000  1
  H  H443  1  0.04944000  0.43108000  0.98136000  1
  H  H444  1  0.48359000  0.93591000  0.15778000  1
  H  H445  1  0.47907000  0.88638000  0.20133000  1
  H  H446  1  0.59378000  0.88387000  0.21517000  1
  H  H447  1  0.56892000  0.95056000  0.01864000  1
  H  H448  1  0.51641000  0.67419000  0.45232000  1
  H  H449  1  0.52093000  0.72226000  0.40731000  1
  H  H450  1  0.40622000  0.62139000  0.29009000  1
  H  H451  1  0.43108000  0.44972000  0.38164000  1
  H  H452  1  0.77813000  0.32581000  0.84222000  1
  H  H453  1  0.68505000  0.27774000  0.79867000  1
  H  H454  1  0.66870000  0.37861000  0.78483000  1
  H  H455  1  0.93192000  0.55028000  0.98136000  1
  H  H456  1  0.22187000  0.06409000  0.54768000  1
  H  H457  1  0.31495000  0.11362000  0.59269000  1
  H  H458  1  0.33130000  0.11613000  0.70991000  1
  H  H459  1  0.06808000  0.04944000  0.61836000  1
  H  H460  1  0.15778000  0.48359000  0.93591000  1
  H  H461  1  0.20133000  0.47907000  0.88638000  1
  H  H462  1  0.21517000  0.59378000  0.88387000  1
  H  H463  1  0.01864000  0.56892000  0.95056000  1
  H  H464  1  0.45232000  0.51641000  0.67419000  1
  H  H465  1  0.40731000  0.52093000  0.72226000  1
  H  H466  1  0.29009000  0.40622000  0.62139000  1
  H  H467  1  0.38164000  0.43108000  0.44972000  1
  H  H468  1  0.84222000  0.77813000  0.32581000  1
  H  H469  1  0.79867000  0.68505000  0.27774000  1
  H  H470  1  0.78483000  0.66870000  0.37861000  1
  H  H471  1  0.98136000  0.93192000  0.55028000  1
  H  H472  1  0.54768000  0.22187000  0.06409000  1
  H  H473  1  0.59269000  0.31495000  0.11362000  1
  H  H474  1  0.70991000  0.33130000  0.11613000  1
  H  H475  1  0.61836000  0.06808000  0.04944000  1
  H  H476  1  0.93591000  0.15778000  0.48359000  1
  H  H477  1  0.88638000  0.20133000  0.47907000  1
  H  H478  1  0.88387000  0.21517000  0.59378000  1
  H  H479  1  0.95056000  0.01864000  0.56892000  1
  H  H480  1  0.67419000  0.45232000  0.51641000  1
  H  H481  1  0.72226000  0.40731000  0.52093000  1
  H  H482  1  0.62139000  0.29009000  0.40622000  1
  H  H483  1  0.44972000  0.38164000  0.43108000  1
  H  H484  1  0.32581000  0.84222000  0.77813000  1
  H  H485  1  0.27774000  0.79867000  0.68505000  1
  H  H486  1  0.37861000  0.78483000  0.66870000  1
  H  H487  1  0.55028000  0.98136000  0.93192000  1
  H  H488  1  0.06409000  0.54768000  0.22187000  1
  H  H489  1  0.11362000  0.59269000  0.31495000  1
  H  H490  1  0.11613000  0.70991000  0.33130000  1
  H  H491  1  0.04944000  0.61836000  0.06808000  1
  Ir  Ir492  1  0.50000000  0.25000000  0.75000000  1
  Ir  Ir493  1  0.50000000  0.75000000  0.25000000  1
  Ir  Ir494  1  0.75000000  0.25000000  0.50000000  1
  Ir  Ir495  1  0.25000000  0.75000000  0.50000000  1
  Ir  Ir496  1  0.25000000  0.50000000  0.75000000  1
  Ir  Ir497  1  0.75000000  0.50000000  0.25000000  1
  N  N498  1  0.44695000  0.25030000  0.69725000  1
  N  N499  1  0.55305000  0.25030000  0.80335000  1
  N  N500  1  0.44695000  0.74970000  0.19665000  1
  N  N501  1  0.55305000  0.74970000  0.30275000  1
  N  N502  1  0.74970000  0.30275000  0.55305000  1
  N  N503  1  0.74970000  0.19665000  0.44695000  1
  N  N504  1  0.25030000  0.80335000  0.55305000  1
  N  N505  1  0.25030000  0.69725000  0.44695000  1
  N  N506  1  0.19665000  0.44695000  0.74970000  1
  N  N507  1  0.30275000  0.55305000  0.74970000  1
  N  N508  1  0.69725000  0.44695000  0.25030000  1
  N  N509  1  0.80335000  0.55305000  0.25030000  1
  N  N510  1  0.44695000  0.19665000  0.74970000  1
  N  N511  1  0.55305000  0.30275000  0.74970000  1
  N  N512  1  0.44695000  0.69725000  0.25030000  1
  N  N513  1  0.55305000  0.80335000  0.25030000  1
  N  N514  1  0.74970000  0.44695000  0.19665000  1
  N  N515  1  0.74970000  0.55305000  0.30275000  1
  N  N516  1  0.25030000  0.44695000  0.69725000  1
  N  N517  1  0.25030000  0.55305000  0.80335000  1
  N  N518  1  0.19665000  0.74970000  0.44695000  1
  N  N519  1  0.30275000  0.74970000  0.55305000  1
  N  N520  1  0.69725000  0.25030000  0.44695000  1
  N  N521  1  0.80335000  0.25030000  0.55305000  1
  O  O522  1  0.48621000  0.39364000  0.53557000  1
  O  O523  1  0.40217000  0.35273000  0.44972000  1
  O  O524  1  0.51379000  0.04936000  0.90743000  1
  O  O525  1  0.59783000  0.04755000  0.95056000  1
  O  O526  1  0.14193000  0.60636000  0.09257000  1
  O  O527  1  0.09699000  0.64727000  0.04944000  1
  O  O528  1  0.85807000  0.95064000  0.46443000  1
  O  O529  1  0.90301000  0.95245000  0.55028000  1
  O  O530  1  0.95064000  0.46443000  0.85807000  1
  O  O531  1  0.95245000  0.55028000  0.90301000  1
  O  O532  1  0.60636000  0.09257000  0.14193000  1
  O  O533  1  0.64727000  0.04944000  0.09699000  1
  O  O534  1  0.04936000  0.90743000  0.51379000  1
  O  O535  1  0.04755000  0.95056000  0.59783000  1
  O  O536  1  0.39364000  0.53557000  0.48621000  1
  O  O537  1  0.35273000  0.44972000  0.40217000  1
  O  O538  1  0.09257000  0.14193000  0.60636000  1
  O  O539  1  0.04944000  0.09699000  0.64727000  1
  O  O540  1  0.46443000  0.85807000  0.95064000  1
  O  O541  1  0.55028000  0.90301000  0.95245000  1
  O  O542  1  0.53557000  0.48621000  0.39364000  1
  O  O543  1  0.44972000  0.40217000  0.35273000  1
  O  O544  1  0.90743000  0.51379000  0.04936000  1
  O  O545  1  0.95056000  0.59783000  0.04755000  1
  O  O546  1  0.48621000  0.09257000  0.95064000  1
  O  O547  1  0.40217000  0.04944000  0.95245000  1
  O  O548  1  0.51379000  0.46443000  0.60636000  1
  O  O549  1  0.59783000  0.55028000  0.64727000  1
  O  O550  1  0.14193000  0.53557000  0.04936000  1
  O  O551  1  0.09699000  0.44972000  0.04755000  1
  O  O552  1  0.85807000  0.90743000  0.39364000  1
  O  O553  1  0.90301000  0.95056000  0.35273000  1
  O  O554  1  0.95064000  0.48621000  0.09257000  1
  O  O555  1  0.95245000  0.40217000  0.04944000  1
  O  O556  1  0.60636000  0.51379000  0.46443000  1
  O  O557  1  0.64727000  0.59783000  0.55028000  1
  O  O558  1  0.04936000  0.14193000  0.53557000  1
  O  O559  1  0.04755000  0.09699000  0.44972000  1
  O  O560  1  0.39364000  0.85807000  0.90743000  1
  O  O561  1  0.35273000  0.90301000  0.95056000  1
  O  O562  1  0.09257000  0.95064000  0.48621000  1
  O  O563  1  0.04944000  0.95245000  0.40217000  1
  O  O564  1  0.46443000  0.60636000  0.51379000  1
  O  O565  1  0.55028000  0.64727000  0.59783000  1
  O  O566  1  0.53557000  0.04936000  0.14193000  1
  O  O567  1  0.44972000  0.04755000  0.09699000  1
  O  O568  1  0.90743000  0.39364000  0.85807000  1
  O  O569  1  0.95056000  0.35273000  0.90301000  1
  O  O570  1  0.51379000  0.60636000  0.46443000  1
  O  O571  1  0.59783000  0.64727000  0.55028000  1
  O  O572  1  0.48621000  0.95064000  0.09257000  1
  O  O573  1  0.40217000  0.95245000  0.04944000  1
  O  O574  1  0.85807000  0.39364000  0.90743000  1
  O  O575  1  0.90301000  0.35273000  0.95056000  1
  O  O576  1  0.14193000  0.04936000  0.53557000  1
  O  O577  1  0.09699000  0.04755000  0.44972000  1
  O  O578  1  0.04936000  0.53557000  0.14193000  1
  O  O579  1  0.04755000  0.44972000  0.09699000  1
  O  O580  1  0.39364000  0.90743000  0.85807000  1
  O  O581  1  0.35273000  0.95056000  0.90301000  1
  O  O582  1  0.95064000  0.09257000  0.48621000  1
  O  O583  1  0.95245000  0.04944000  0.40217000  1
  O  O584  1  0.60636000  0.46443000  0.51379000  1
  O  O585  1  0.64727000  0.55028000  0.59783000  1
  O  O586  1  0.90743000  0.85807000  0.39364000  1
  O  O587  1  0.95056000  0.90301000  0.35273000  1
  O  O588  1  0.53557000  0.14193000  0.04936000  1
  O  O589  1  0.44972000  0.09699000  0.04755000  1
  O  O590  1  0.46443000  0.51379000  0.60636000  1
  O  O591  1  0.55028000  0.59783000  0.64727000  1
  O  O592  1  0.09257000  0.48621000  0.95064000  1
  O  O593  1  0.04944000  0.40217000  0.95245000  1
  O  O594  1  0.51379000  0.90743000  0.04936000  1
  O  O595  1  0.59783000  0.95056000  0.04755000  1
  O  O596  1  0.48621000  0.53557000  0.39364000  1
  O  O597  1  0.40217000  0.44972000  0.35273000  1
  O  O598  1  0.85807000  0.46443000  0.95064000  1
  O  O599  1  0.90301000  0.55028000  0.95245000  1
  O  O600  1  0.14193000  0.09257000  0.60636000  1
  O  O601  1  0.09699000  0.04944000  0.64727000  1
  O  O602  1  0.04936000  0.51379000  0.90743000  1
  O  O603  1  0.04755000  0.59783000  0.95056000  1
  O  O604  1  0.39364000  0.48621000  0.53557000  1
  O  O605  1  0.35273000  0.40217000  0.44972000  1
  O  O606  1  0.95064000  0.85807000  0.46443000  1
  O  O607  1  0.95245000  0.90301000  0.55028000  1
  O  O608  1  0.60636000  0.14193000  0.09257000  1
  O  O609  1  0.64727000  0.09699000  0.04944000  1
  O  O610  1  0.90743000  0.04936000  0.51379000  1
  O  O611  1  0.95056000  0.04755000  0.59783000  1
  O  O612  1  0.53557000  0.39364000  0.48621000  1
  O  O613  1  0.44972000  0.35273000  0.40217000  1
  O  O614  1  0.46443000  0.95064000  0.85807000  1
  O  O615  1  0.55028000  0.95245000  0.90301000  1
  O  O616  1  0.09257000  0.60636000  0.14193000  1
  O  O617  1  0.04944000  0.64727000  0.09699000  1
  O  O618  1  0.55052000  0.48544000  0.55052000  1
  O  O619  1  0.44948000  0.00000000  0.93492000  1
  O  O620  1  0.06508000  0.51456000  0.06508000  1
  O  O621  1  0.93492000  0.00000000  0.44948000  1
  O  O622  1  0.00000000  0.44948000  0.93492000  1
  O  O623  1  0.51456000  0.06508000  0.06508000  1
  O  O624  1  0.00000000  0.93492000  0.44948000  1
  O  O625  1  0.48544000  0.55052000  0.55052000  1
  O  O626  1  0.06508000  0.06508000  0.51456000  1
  O  O627  1  0.44948000  0.93492000  0.00000000  1
  O  O628  1  0.55052000  0.55052000  0.48544000  1
  O  O629  1  0.93492000  0.44948000  0.00000000  1
  O  O630  1  0.55052000  0.06508000  0.00000000  1
  O  O631  1  0.44948000  0.44948000  0.51456000  1
  O  O632  1  0.06508000  0.55052000  0.00000000  1
  O  O633  1  0.93492000  0.93492000  0.48544000  1
  O  O634  1  0.00000000  0.55052000  0.06508000  1
  O  O635  1  0.51456000  0.44948000  0.44948000  1
  O  O636  1  0.00000000  0.06508000  0.55052000  1
  O  O637  1  0.48544000  0.93492000  0.93492000  1
  O  O638  1  0.06508000  0.00000000  0.55052000  1
  O  O639  1  0.44948000  0.51456000  0.44948000  1
  O  O640  1  0.55052000  0.00000000  0.06508000  1
  O  O641  1  0.93492000  0.48544000  0.93492000  1
  O  O642  1  0.43426000  0.43426000  0.43426000  1
  O  O643  1  0.56574000  0.00000000  0.00000000  1
  O  O644  1  0.00000000  0.56574000  0.00000000  1
  O  O645  1  0.00000000  0.00000000  0.56574000  1
  O  O646  1  0.43426000  0.00000000  0.00000000  1
  O  O647  1  0.56574000  0.56574000  0.56574000  1
  O  O648  1  0.00000000  0.43426000  0.00000000  1
  O  O649  1  0.00000000  0.00000000  0.43426000  1
  Zr  Zr650  1  0.47830000  0.41388000  0.47830000  1
  Zr  Zr651  1  0.52170000  0.00000000  0.93558000  1
  Zr  Zr652  1  0.06442000  0.58612000  0.06442000  1
  Zr  Zr653  1  0.93558000  0.00000000  0.52170000  1
  Zr  Zr654  1  0.00000000  0.52170000  0.93558000  1
  Zr  Zr655  1  0.58612000  0.06442000  0.06442000  1
  Zr  Zr656  1  0.00000000  0.93558000  0.52170000  1
  Zr  Zr657  1  0.41388000  0.47830000  0.47830000  1
  Zr  Zr658  1  0.06442000  0.06442000  0.58612000  1
  Zr  Zr659  1  0.52170000  0.93558000  0.00000000  1
  Zr  Zr660  1  0.47830000  0.47830000  0.41388000  1
  Zr  Zr661  1  0.93558000  0.52170000  0.00000000  1
  Zr  Zr662  1  0.47830000  0.06442000  0.00000000  1
  Zr  Zr663  1  0.52170000  0.52170000  0.58612000  1
  Zr  Zr664  1  0.06442000  0.47830000  0.00000000  1
  Zr  Zr665  1  0.93558000  0.93558000  0.41388000  1
  Zr  Zr666  1  0.00000000  0.47830000  0.06442000  1
  Zr  Zr667  1  0.58612000  0.52170000  0.52170000  1
  Zr  Zr668  1  0.00000000  0.06442000  0.47830000  1
  Zr  Zr669  1  0.41388000  0.93558000  0.93558000  1
  Zr  Zr670  1  0.06442000  0.00000000  0.47830000  1
  Zr  Zr671  1  0.52170000  0.58612000  0.52170000  1
  Zr  Zr672  1  0.47830000  0.00000000  0.06442000  1
  Zr  Zr673  1  0.93558000  0.41388000  0.93558000  1
