# generated using pymatgen
data_Zr3H18(C15O8)2
_symmetry_space_group_name_H-M   'P 1'
_cell_length_a   20.30300000
_cell_length_b   26.44852005
_cell_length_c   26.44852005
_cell_angle_alpha   81.52843064
_cell_angle_beta   67.42942795
_cell_angle_gamma   67.42942795
_symmetry_Int_Tables_number   1
_chemical_formula_structural   Zr3H18(C15O8)2
_chemical_formula_sum   'Zr24 H144 C240 O128'
_cell_volume   12110.15600193
_cell_formula_units_Z   8
loop_
 _symmetry_equiv_pos_site_id
 _symmetry_equiv_pos_as_xyz
  1  'x, y, z'
loop_
 _atom_site_type_symbol
 _atom_site_label
 _atom_site_symmetry_multiplicity
 _atom_site_fract_x
 _atom_site_fract_y
 _atom_site_fract_z
 _atom_site_occupancy
  C  C0  1  0.34720000  0.71710000  0.66570000  1
  C  C1  1  0.88110000  0.85800000  0.90680000  1
  C  C2  1  0.84040000  0.91260000  0.91900000  1
  C  C3  1  0.12600000  0.81340000  0.81860000  1
  C  C4  1  0.08490000  0.85370000  0.85830000  1
  C  C5  1  0.99900000  0.87440000  0.88000000  1
  C  C6  1  0.30740000  0.75760000  0.70560000  1
  C  C7  1  0.75360000  0.93440000  0.93900000  1
  C  C8  1  0.96070000  0.83780000  0.88760000  1
  C  C9  1  0.87840000  0.94850000  0.91210000  1
  C  C10  1  0.50360000  0.82830000  0.03330000  1
  C  C11  1  0.95730000  0.92930000  0.89330000  1
  C  C12  1  0.62820000  0.89520000  0.10480000  1
  C  C13  1  0.20450000  0.79550000  0.79550000  1
  C  C14  1  0.12450000  0.87550000  0.87550000  1
  C  C15  1  0.24800000  0.75200000  0.75200000  1
  C  C16  1  0.32840000  0.67160000  0.67160000  1
  C  C17  1  0.37110000  0.62890000  0.62890000  1
  C  C18  1  0.06430000  0.66570000  0.78290000  1
  C  C19  1  0.73910000  0.90680000  0.64200000  1
  C  C20  1  0.75300000  0.91900000  0.58740000  1
  C  C21  1  0.93940000  0.81860000  0.68660000  1
  C  C22  1  0.93860000  0.85830000  0.64630000  1
  C  C23  1  0.87340000  0.88000000  0.62560000  1
  C  C24  1  0.06500000  0.70560000  0.74240000  1
  C  C25  1  0.68800000  0.93900000  0.56560000  1
  C  C26  1  0.79850000  0.88760000  0.66220000  1
  C  C27  1  0.82690000  0.91210000  0.55150000  1
  C  C28  1  0.33190000  0.03330000  0.67170000  1
  C  C29  1  0.88660000  0.89330000  0.57070000  1
  C  C30  1  0.52340000  0.10480000  0.60480000  1
  C  C31  1  0.00000000  0.79550000  0.70450000  1
  C  C32  1  0.00000000  0.87550000  0.62450000  1
  C  C33  1  0.00000000  0.75200000  0.74800000  1
  C  C34  1  0.00000000  0.67160000  0.82840000  1
  C  C35  1  0.00000000  0.62890000  0.87110000  1
  C  C36  1  0.73000000  0.78290000  0.83430000  1
  C  C37  1  0.64590000  0.64200000  0.59320000  1
  C  C38  1  0.67200000  0.58740000  0.58100000  1
  C  C39  1  0.75800000  0.68660000  0.68140000  1
  C  C40  1  0.79690000  0.64630000  0.64170000  1
  C  C41  1  0.75340000  0.62560000  0.62000000  1
  C  C42  1  0.77060000  0.74240000  0.79440000  1
  C  C43  1  0.62700000  0.56560000  0.56100000  1
  C  C44  1  0.68610000  0.66220000  0.61240000  1
  C  C45  1  0.73900000  0.55150000  0.58790000  1
  C  C46  1  0.36520000  0.67170000  0.46670000  1
  C  C47  1  0.77990000  0.57070000  0.60670000  1
  C  C48  1  0.62820000  0.60480000  0.39520000  1
  C  C49  1  0.79550000  0.70450000  0.70450000  1
  C  C50  1  0.87550000  0.62450000  0.62450000  1
  C  C51  1  0.75200000  0.74800000  0.74800000  1
  C  C52  1  0.67160000  0.82840000  0.82840000  1
  C  C53  1  0.62890000  0.87110000  0.87110000  1
  C  C54  1  0.51290000  0.83430000  0.71710000  1
  C  C55  1  0.28790000  0.59320000  0.85800000  1
  C  C56  1  0.25940000  0.58100000  0.91260000  1
  C  C57  1  0.44460000  0.68140000  0.81340000  1
  C  C58  1  0.44320000  0.64170000  0.85370000  1
  C  C59  1  0.37900000  0.62000000  0.87440000  1
  C  C60  1  0.51300000  0.79440000  0.75760000  1
  C  C61  1  0.19260000  0.56100000  0.93440000  1
  C  C62  1  0.34830000  0.61240000  0.83780000  1
  C  C63  1  0.29050000  0.58790000  0.94850000  1
  C  C64  1  0.03690000  0.46670000  0.82830000  1
  C  C65  1  0.35060000  0.60670000  0.92930000  1
  C  C66  1  0.23300000  0.39520000  0.89520000  1
  C  C67  1  0.50000000  0.70450000  0.79550000  1
  C  C68  1  0.50000000  0.62450000  0.87550000  1
  C  C69  1  0.50000000  0.74800000  0.75200000  1
  C  C70  1  0.50000000  0.82840000  0.67160000  1
  C  C71  1  0.50000000  0.87110000  0.62890000  1
  C  C72  1  0.27000000  0.66570000  0.71710000  1
  C  C73  1  0.35410000  0.90680000  0.85800000  1
  C  C74  1  0.32800000  0.91900000  0.91260000  1
  C  C75  1  0.24200000  0.81860000  0.81340000  1
  C  C76  1  0.20310000  0.85830000  0.85370000  1
  C  C77  1  0.24660000  0.88000000  0.87440000  1
  C  C78  1  0.22940000  0.70560000  0.75760000  1
  C  C79  1  0.37300000  0.93900000  0.93440000  1
  C  C80  1  0.31390000  0.88760000  0.83780000  1
  C  C81  1  0.26100000  0.91210000  0.94850000  1
  C  C82  1  0.63480000  0.03330000  0.82830000  1
  C  C83  1  0.22010000  0.89330000  0.92930000  1
  C  C84  1  0.37180000  0.10480000  0.89520000  1
  C  C85  1  0.93570000  0.71710000  0.83430000  1
  C  C86  1  0.26090000  0.85800000  0.59320000  1
  C  C87  1  0.24700000  0.91260000  0.58100000  1
  C  C88  1  0.06060000  0.81340000  0.68140000  1
  C  C89  1  0.06140000  0.85370000  0.64170000  1
  C  C90  1  0.12660000  0.87440000  0.62000000  1
  C  C91  1  0.93500000  0.75760000  0.79440000  1
  C  C92  1  0.31200000  0.93440000  0.56100000  1
  C  C93  1  0.20150000  0.83780000  0.61240000  1
  C  C94  1  0.17310000  0.94850000  0.58790000  1
  C  C95  1  0.66810000  0.82830000  0.46670000  1
  C  C96  1  0.11340000  0.92930000  0.60670000  1
  C  C97  1  0.47660000  0.89520000  0.39520000  1
  C  C98  1  0.65280000  0.83430000  0.78290000  1
  C  C99  1  0.11890000  0.59320000  0.64200000  1
  C  C100  1  0.15960000  0.58100000  0.58740000  1
  C  C101  1  0.87400000  0.68140000  0.68660000  1
  C  C102  1  0.91510000  0.64170000  0.64630000  1
  C  C103  1  0.00100000  0.62000000  0.62560000  1
  C  C104  1  0.69260000  0.79440000  0.74240000  1
  C  C105  1  0.24640000  0.56100000  0.56560000  1
  C  C106  1  0.03930000  0.61240000  0.66220000  1
  C  C107  1  0.12160000  0.58790000  0.55150000  1
  C  C108  1  0.49640000  0.46670000  0.67170000  1
  C  C109  1  0.04270000  0.60670000  0.57070000  1
  C  C110  1  0.37180000  0.39520000  0.60480000  1
  C  C111  1  0.48710000  0.78290000  0.66570000  1
  C  C112  1  0.71210000  0.64200000  0.90680000  1
  C  C113  1  0.74060000  0.58740000  0.91900000  1
  C  C114  1  0.55540000  0.68660000  0.81860000  1
  C  C115  1  0.55680000  0.64630000  0.85830000  1
  C  C116  1  0.62100000  0.62560000  0.88000000  1
  C  C117  1  0.48700000  0.74240000  0.70560000  1
  C  C118  1  0.80740000  0.56560000  0.93900000  1
  C  C119  1  0.65170000  0.66220000  0.88760000  1
  C  C120  1  0.70950000  0.55150000  0.91210000  1
  C  C121  1  0.96310000  0.67170000  0.03330000  1
  C  C122  1  0.64940000  0.57070000  0.89330000  1
  C  C123  1  0.76700000  0.60480000  0.10480000  1
  C  C124  1  0.65280000  0.28290000  0.33430000  1
  C  C125  1  0.11890000  0.14200000  0.09320000  1
  C  C126  1  0.15960000  0.08740000  0.08100000  1
  C  C127  1  0.87400000  0.18660000  0.18140000  1
  C  C128  1  0.91510000  0.14630000  0.14170000  1
  C  C129  1  0.00100000  0.12560000  0.12000000  1
  C  C130  1  0.69260000  0.24240000  0.29440000  1
  C  C131  1  0.24640000  0.06560000  0.06100000  1
  C  C132  1  0.03930000  0.16220000  0.11240000  1
  C  C133  1  0.12160000  0.05150000  0.08790000  1
  C  C134  1  0.49640000  0.17170000  0.96670000  1
  C  C135  1  0.04270000  0.07070000  0.10670000  1
  C  C136  1  0.79550000  0.20450000  0.20450000  1
  C  C137  1  0.87550000  0.12450000  0.12450000  1
  C  C138  1  0.75200000  0.24800000  0.24800000  1
  C  C139  1  0.67160000  0.32840000  0.32840000  1
  C  C140  1  0.62890000  0.37110000  0.37110000  1
  C  C141  1  0.93570000  0.33430000  0.21710000  1
  C  C142  1  0.26090000  0.09320000  0.35800000  1
  C  C143  1  0.24700000  0.08100000  0.41260000  1
  C  C144  1  0.06060000  0.18140000  0.31340000  1
  C  C145  1  0.06140000  0.14170000  0.35370000  1
  C  C146  1  0.12660000  0.12000000  0.37440000  1
  C  C147  1  0.93500000  0.29440000  0.25760000  1
  C  C148  1  0.31200000  0.06100000  0.43440000  1
  C  C149  1  0.20150000  0.11240000  0.33780000  1
  C  C150  1  0.17310000  0.08790000  0.44850000  1
  C  C151  1  0.66810000  0.96670000  0.32830000  1
  C  C152  1  0.11340000  0.10670000  0.42930000  1
  C  C153  1  0.00000000  0.20450000  0.29550000  1
  C  C154  1  0.00000000  0.12450000  0.37550000  1
  C  C155  1  0.00000000  0.24800000  0.25200000  1
  C  C156  1  1.00000000  0.32840000  0.17160000  1
  C  C157  1  0.00000000  0.37110000  0.12890000  1
  C  C158  1  0.27000000  0.21710000  0.16570000  1
  C  C159  1  0.35410000  0.35800000  0.40680000  1
  C  C160  1  0.32800000  0.41260000  0.41900000  1
  C  C161  1  0.24200000  0.31340000  0.31860000  1
  C  C162  1  0.20310000  0.35370000  0.35830000  1
  C  C163  1  0.24660000  0.37440000  0.38000000  1
  C  C164  1  0.22940000  0.25760000  0.20560000  1
  C  C165  1  0.37300000  0.43440000  0.43900000  1
  C  C166  1  0.31390000  0.33780000  0.38760000  1
  C  C167  1  0.26100000  0.44850000  0.41210000  1
  C  C168  1  0.63480000  0.32830000  0.53330000  1
  C  C169  1  0.22010000  0.42930000  0.39330000  1
  C  C170  1  0.20450000  0.29550000  0.29550000  1
  C  C171  1  0.12450000  0.37550000  0.37550000  1
  C  C172  1  0.24800000  0.25200000  0.25200000  1
  C  C173  1  0.32840000  0.17160000  0.17160000  1
  C  C174  1  0.37110000  0.12890000  0.12890000  1
  C  C175  1  0.48710000  0.16570000  0.28290000  1
  C  C176  1  0.71210000  0.40680000  0.14200000  1
  C  C177  1  0.74060000  0.41900000  0.08740000  1
  C  C178  1  0.55540000  0.31860000  0.18660000  1
  C  C179  1  0.55680000  0.35830000  0.14630000  1
  C  C180  1  0.62100000  0.38000000  0.12560000  1
  C  C181  1  0.48700000  0.20560000  0.24240000  1
  C  C182  1  0.80740000  0.43900000  0.06560000  1
  C  C183  1  0.65170000  0.38760000  0.16220000  1
  C  C184  1  0.70950000  0.41210000  0.05150000  1
  C  C185  1  0.96310000  0.53330000  0.17170000  1
  C  C186  1  0.64940000  0.39330000  0.07070000  1
  C  C187  1  0.50000000  0.29550000  0.20450000  1
  C  C188  1  0.50000000  0.37550000  0.12450000  1
  C  C189  1  0.50000000  0.25200000  0.24800000  1
  C  C190  1  0.50000000  0.17160000  0.32840000  1
  C  C191  1  0.50000000  0.12890000  0.37110000  1
  C  C192  1  0.73000000  0.33430000  0.28290000  1
  C  C193  1  0.64590000  0.09320000  0.14200000  1
  C  C194  1  0.67200000  0.08100000  0.08740000  1
  C  C195  1  0.75800000  0.18140000  0.18660000  1
  C  C196  1  0.79690000  0.14170000  0.14630000  1
  C  C197  1  0.75340000  0.12000000  0.12560000  1
  C  C198  1  0.77060000  0.29440000  0.24240000  1
  C  C199  1  0.62700000  0.06100000  0.06560000  1
  C  C200  1  0.68610000  0.11240000  0.16220000  1
  C  C201  1  0.73900000  0.08790000  0.05150000  1
  C  C202  1  0.36520000  0.96670000  0.17170000  1
  C  C203  1  0.77990000  0.10670000  0.07070000  1
  C  C204  1  0.06430000  0.28290000  0.16570000  1
  C  C205  1  0.73910000  0.14200000  0.40680000  1
  C  C206  1  0.75300000  0.08740000  0.41900000  1
  C  C207  1  0.93940000  0.18660000  0.31860000  1
  C  C208  1  0.93860000  0.14630000  0.35830000  1
  C  C209  1  0.87340000  0.12560000  0.38000000  1
  C  C210  1  0.06500000  0.24240000  0.20560000  1
  C  C211  1  0.68800000  0.06560000  0.43900000  1
  C  C212  1  0.79850000  0.16220000  0.38760000  1
  C  C213  1  0.82690000  0.05150000  0.41210000  1
  C  C214  1  0.33190000  0.17170000  0.53330000  1
  C  C215  1  0.88660000  0.07070000  0.39330000  1
  C  C216  1  0.34720000  0.16570000  0.21710000  1
  C  C217  1  0.88110000  0.40680000  0.35800000  1
  C  C218  1  0.84040000  0.41900000  0.41260000  1
  C  C219  1  0.12600000  0.31860000  0.31340000  1
  C  C220  1  0.08490000  0.35830000  0.35370000  1
  C  C221  1  0.99900000  0.38000000  0.37440000  1
  C  C222  1  0.30740000  0.20560000  0.25760000  1
  C  C223  1  0.75360000  0.43900000  0.43440000  1
  C  C224  1  0.96070000  0.38760000  0.33780000  1
  C  C225  1  0.87840000  0.41210000  0.44850000  1
  C  C226  1  0.50360000  0.53330000  0.32830000  1
  C  C227  1  0.95730000  0.39330000  0.42930000  1
  C  C228  1  0.51290000  0.21710000  0.33430000  1
  C  C229  1  0.28790000  0.35800000  0.09320000  1
  C  C230  1  0.25940000  0.41260000  0.08100000  1
  C  C231  1  0.44460000  0.31340000  0.18140000  1
  C  C232  1  0.44320000  0.35370000  0.14170000  1
  C  C233  1  0.37900000  0.37440000  0.12000000  1
  C  C234  1  0.51300000  0.25760000  0.29440000  1
  C  C235  1  0.19260000  0.43440000  0.06100000  1
  C  C236  1  0.34830000  0.33780000  0.11240000  1
  C  C237  1  0.29050000  0.44850000  0.08790000  1
  C  C238  1  0.03690000  0.32830000  0.96670000  1
  C  C239  1  0.35060000  0.42930000  0.10670000  1
  H  H240  1  0.38780000  0.72110000  0.63410000  1
  H  H241  1  0.85460000  0.83380000  0.91160000  1
  H  H242  1  0.09940000  0.79760000  0.80680000  1
  H  H243  1  0.32070000  0.78910000  0.70130000  1
  H  H244  1  0.98870000  0.79990000  0.87970000  1
  H  H245  1  0.85010000  0.98620000  0.92040000  1
  H  H246  1  0.98300000  0.95380000  0.88960000  1
  H  H247  1  0.64680000  0.95760000  0.89540000  1
  H  H248  1  0.64320000  0.96830000  0.03170000  1
  H  H249  1  0.09690000  0.90310000  0.90310000  1
  H  H250  1  0.10890000  0.63410000  0.77890000  1
  H  H251  1  0.68840000  0.91160000  0.66620000  1
  H  H252  1  0.89700000  0.80680000  0.70240000  1
  H  H253  1  0.10980000  0.70130000  0.71090000  1
  H  H254  1  0.78860000  0.87970000  0.70010000  1
  H  H255  1  0.83630000  0.92040000  0.51380000  1
  H  H256  1  0.93680000  0.88960000  0.54620000  1
  H  H257  1  0.60440000  0.89540000  0.54240000  1
  H  H258  1  0.61150000  0.03170000  0.53170000  1
  H  H259  1  0.00000000  0.90310000  0.59690000  1
  H  H260  1  0.74300000  0.77890000  0.86590000  1
  H  H261  1  0.60000000  0.66620000  0.58840000  1
  H  H262  1  0.70380000  0.70240000  0.69320000  1
  H  H263  1  0.81110000  0.71090000  0.79870000  1
  H  H264  1  0.66830000  0.70010000  0.62030000  1
  H  H265  1  0.75670000  0.51380000  0.57960000  1
  H  H266  1  0.82640000  0.54620000  0.61040000  1
  H  H267  1  0.49980000  0.54240000  0.60460000  1
  H  H268  1  0.64320000  0.53170000  0.46830000  1
  H  H269  1  0.90310000  0.59690000  0.59690000  1
  H  H270  1  0.52190000  0.86590000  0.72110000  1
  H  H271  1  0.26620000  0.58840000  0.83380000  1
  H  H272  1  0.40620000  0.69320000  0.79760000  1
  H  H273  1  0.52200000  0.79870000  0.78910000  1
  H  H274  1  0.36840000  0.62030000  0.79990000  1
  H  H275  1  0.27050000  0.57960000  0.98620000  1
  H  H276  1  0.37260000  0.61040000  0.95380000  1
  H  H277  1  0.04220000  0.60460000  0.95760000  1
  H  H278  1  0.17490000  0.46830000  0.96830000  1
  H  H279  1  0.50000000  0.59690000  0.90310000  1
  H  H280  1  0.25700000  0.63410000  0.72110000  1
  H  H281  1  0.40000000  0.91160000  0.83380000  1
  H  H282  1  0.29620000  0.80680000  0.79760000  1
  H  H283  1  0.18890000  0.70130000  0.78910000  1
  H  H284  1  0.33170000  0.87970000  0.79990000  1
  H  H285  1  0.24330000  0.92040000  0.98620000  1
  H  H286  1  0.17360000  0.88960000  0.95380000  1
  H  H287  1  0.50020000  0.89540000  0.95760000  1
  H  H288  1  0.35680000  0.03170000  0.96830000  1
  H  H289  1  0.89110000  0.72110000  0.86590000  1
  H  H290  1  0.31160000  0.83380000  0.58840000  1
  H  H291  1  0.10300000  0.79760000  0.69320000  1
  H  H292  1  0.89020000  0.78910000  0.79870000  1
  H  H293  1  0.21140000  0.79990000  0.62030000  1
  H  H294  1  0.16370000  0.98620000  0.57960000  1
  H  H295  1  0.06320000  0.95380000  0.61040000  1
  H  H296  1  0.39560000  0.95760000  0.60460000  1
  H  H297  1  0.38850000  0.96830000  0.46830000  1
  H  H298  1  0.61220000  0.86590000  0.77890000  1
  H  H299  1  0.14540000  0.58840000  0.66620000  1
  H  H300  1  0.90060000  0.69320000  0.70240000  1
  H  H301  1  0.67930000  0.79870000  0.71090000  1
  H  H302  1  0.01130000  0.62030000  0.70010000  1
  H  H303  1  0.14990000  0.57960000  0.51380000  1
  H  H304  1  0.01700000  0.61040000  0.54620000  1
  H  H305  1  0.35320000  0.60460000  0.54240000  1
  H  H306  1  0.35680000  0.46830000  0.53170000  1
  H  H307  1  0.47810000  0.77890000  0.63410000  1
  H  H308  1  0.73380000  0.66620000  0.91160000  1
  H  H309  1  0.59380000  0.70240000  0.80680000  1
  H  H310  1  0.47800000  0.71090000  0.70130000  1
  H  H311  1  0.63160000  0.70010000  0.87970000  1
  H  H312  1  0.72950000  0.51380000  0.92040000  1
  H  H313  1  0.62740000  0.54620000  0.88960000  1
  H  H314  1  0.95780000  0.54240000  0.89540000  1
  H  H315  1  0.82510000  0.53170000  0.03170000  1
  H  H316  1  0.61220000  0.27890000  0.36590000  1
  H  H317  1  0.14540000  0.16620000  0.08840000  1
  H  H318  1  0.90060000  0.20240000  0.19320000  1
  H  H319  1  0.67930000  0.21090000  0.29870000  1
  H  H320  1  0.01130000  0.20010000  0.12030000  1
  H  H321  1  0.14990000  0.01380000  0.07960000  1
  H  H322  1  0.01700000  0.04620000  0.11040000  1
  H  H323  1  0.35320000  0.04240000  0.10460000  1
  H  H324  1  0.90310000  0.09690000  0.09690000  1
  H  H325  1  0.89110000  0.36590000  0.22110000  1
  H  H326  1  0.31160000  0.08840000  0.33380000  1
  H  H327  1  0.10300000  0.19320000  0.29760000  1
  H  H328  1  0.89020000  0.29870000  0.28910000  1
  H  H329  1  0.21140000  0.12030000  0.29990000  1
  H  H330  1  0.16370000  0.07960000  0.48620000  1
  H  H331  1  0.06320000  0.11040000  0.45380000  1
  H  H332  1  0.39560000  0.10460000  0.45760000  1
  H  H333  1  0.00000000  0.09690000  0.40310000  1
  H  H334  1  0.25700000  0.22110000  0.13410000  1
  H  H335  1  0.40000000  0.33380000  0.41160000  1
  H  H336  1  0.29620000  0.29760000  0.30680000  1
  H  H337  1  0.18890000  0.28910000  0.20130000  1
  H  H338  1  0.33170000  0.29990000  0.37970000  1
  H  H339  1  0.24330000  0.48620000  0.42040000  1
  H  H340  1  0.17360000  0.45380000  0.38960000  1
  H  H341  1  0.50020000  0.45760000  0.39540000  1
  H  H342  1  0.09690000  0.40310000  0.40310000  1
  H  H343  1  0.47810000  0.13410000  0.27890000  1
  H  H344  1  0.73380000  0.41160000  0.16620000  1
  H  H345  1  0.59380000  0.30680000  0.20240000  1
  H  H346  1  0.47800000  0.20130000  0.21090000  1
  H  H347  1  0.63160000  0.37970000  0.20010000  1
  H  H348  1  0.72950000  0.42040000  0.01380000  1
  H  H349  1  0.62740000  0.38960000  0.04620000  1
  H  H350  1  0.95780000  0.39540000  0.04240000  1
  H  H351  1  0.50000000  0.40310000  0.09690000  1
  H  H352  1  0.74300000  0.36590000  0.27890000  1
  H  H353  1  0.60000000  0.08840000  0.16620000  1
  H  H354  1  0.70380000  0.19320000  0.20240000  1
  H  H355  1  0.81110000  0.29870000  0.21090000  1
  H  H356  1  0.66830000  0.12030000  0.20010000  1
  H  H357  1  0.75670000  0.07960000  0.01380000  1
  H  H358  1  0.82640000  0.11040000  0.04620000  1
  H  H359  1  0.49980000  0.10460000  0.04240000  1
  H  H360  1  0.10890000  0.27890000  0.13410000  1
  H  H361  1  0.68840000  0.16620000  0.41160000  1
  H  H362  1  0.89700000  0.20240000  0.30680000  1
  H  H363  1  0.10980000  0.21090000  0.20130000  1
  H  H364  1  0.78860000  0.20010000  0.37970000  1
  H  H365  1  0.83630000  0.01380000  0.42040000  1
  H  H366  1  0.93680000  0.04620000  0.38960000  1
  H  H367  1  0.60440000  0.04240000  0.39540000  1
  H  H368  1  0.38780000  0.13410000  0.22110000  1
  H  H369  1  0.85460000  0.41160000  0.33380000  1
  H  H370  1  0.09940000  0.30680000  0.29760000  1
  H  H371  1  0.32070000  0.20130000  0.28910000  1
  H  H372  1  0.98870000  0.37970000  0.29990000  1
  H  H373  1  0.85010000  0.42040000  0.48620000  1
  H  H374  1  0.98300000  0.38960000  0.45380000  1
  H  H375  1  0.64680000  0.39540000  0.45760000  1
  H  H376  1  0.52190000  0.22110000  0.36590000  1
  H  H377  1  0.26620000  0.33380000  0.08840000  1
  H  H378  1  0.40620000  0.29760000  0.19320000  1
  H  H379  1  0.52200000  0.28910000  0.29870000  1
  H  H380  1  0.36840000  0.29990000  0.12030000  1
  H  H381  1  0.27050000  0.48620000  0.07960000  1
  H  H382  1  0.37260000  0.45380000  0.11040000  1
  H  H383  1  0.04220000  0.45760000  0.10460000  1
  O  O384  1  0.72171000  0.89895000  0.95503000  1
  O  O385  1  0.72155000  0.98505000  0.93685000  1
  O  O386  1  0.42226000  0.63764000  0.58624000  1
  O  O387  1  0.64502000  0.87208000  0.05788000  1
  O  O388  1  0.58500000  0.82770000  0.01370000  1
  O  O389  1  0.41660000  0.87060000  0.05460000  1
  O  O390  1  0.59990000  0.97160000  0.92860000  1
  O  O391  1  0.49780000  0.93620000  0.06380000  1
  O  O392  1  0.59710000  0.97850000  0.02150000  1
  O  O393  1  0.62066000  0.95503000  0.60105000  1
  O  O394  1  0.70660000  0.93685000  0.51495000  1
  O  O395  1  0.05990000  0.58624000  0.86236000  1
  O  O396  1  0.51710000  0.05788000  0.62792000  1
  O  O397  1  0.41270000  0.01370000  0.67230000  1
  O  O398  1  0.28720000  0.05460000  0.62940000  1
  O  O399  1  0.57150000  0.92860000  0.52840000  1
  O  O400  1  0.43400000  0.06380000  0.56380000  1
  O  O401  1  0.57560000  0.02150000  0.52150000  1
  O  O402  1  0.57569000  0.60105000  0.54497000  1
  O  O403  1  0.64345000  0.51495000  0.56315000  1
  O  O404  1  0.64614000  0.86236000  0.91376000  1
  O  O405  1  0.57498000  0.62792000  0.44212000  1
  O  O406  1  0.42640000  0.67230000  0.48630000  1
  O  O407  1  0.34180000  0.62940000  0.44540000  1
  O  O408  1  0.50010000  0.52840000  0.57140000  1
  O  O409  1  0.49780000  0.56380000  0.43620000  1
  O  O410  1  0.59710000  0.52150000  0.47850000  1
  O  O411  1  0.17674000  0.54497000  0.89895000  1
  O  O412  1  0.15840000  0.56315000  0.98505000  1
  O  O413  1  0.50850000  0.91376000  0.63764000  1
  O  O414  1  0.20290000  0.44212000  0.87208000  1
  O  O415  1  0.09870000  0.48630000  0.82770000  1
  O  O416  1  0.97120000  0.44540000  0.87060000  1
  O  O417  1  0.02850000  0.57140000  0.97160000  1
  O  O418  1  0.06160000  0.43620000  0.93620000  1
  O  O419  1  0.11860000  0.47850000  0.97850000  1
  O  O420  1  0.42431000  0.95503000  0.89895000  1
  O  O421  1  0.35655000  0.93685000  0.98505000  1
  O  O422  1  0.35386000  0.58624000  0.63764000  1
  O  O423  1  0.42502000  0.05788000  0.87208000  1
  O  O424  1  0.57360000  0.01370000  0.82770000  1
  O  O425  1  0.65820000  0.05460000  0.87060000  1
  O  O426  1  0.49990000  0.92860000  0.97160000  1
  O  O427  1  0.50220000  0.06380000  0.93620000  1
  O  O428  1  0.40290000  0.02150000  0.97850000  1
  O  O429  1  0.37934000  0.89895000  0.54497000  1
  O  O430  1  0.29340000  0.98505000  0.56315000  1
  O  O431  1  0.94010000  0.63764000  0.91376000  1
  O  O432  1  0.48290000  0.87208000  0.44212000  1
  O  O433  1  0.58730000  0.82770000  0.48630000  1
  O  O434  1  0.71280000  0.87060000  0.44540000  1
  O  O435  1  0.42850000  0.97160000  0.57140000  1
  O  O436  1  0.56600000  0.93620000  0.43620000  1
  O  O437  1  0.42440000  0.97850000  0.47850000  1
  O  O438  1  0.27829000  0.54497000  0.60105000  1
  O  O439  1  0.27845000  0.56315000  0.51495000  1
  O  O440  1  0.57774000  0.91376000  0.86236000  1
  O  O441  1  0.35498000  0.44212000  0.62792000  1
  O  O442  1  0.41500000  0.48630000  0.67230000  1
  O  O443  1  0.58340000  0.44540000  0.62940000  1
  O  O444  1  0.40010000  0.57140000  0.52840000  1
  O  O445  1  0.50220000  0.43620000  0.56380000  1
  O  O446  1  0.40290000  0.47850000  0.52150000  1
  O  O447  1  0.82326000  0.60105000  0.95503000  1
  O  O448  1  0.84160000  0.51495000  0.93685000  1
  O  O449  1  0.49150000  0.86236000  0.58624000  1
  O  O450  1  0.79710000  0.62792000  0.05788000  1
  O  O451  1  0.90130000  0.67230000  0.01370000  1
  O  O452  1  0.02880000  0.62940000  0.05460000  1
  O  O453  1  0.97150000  0.52840000  0.92860000  1
  O  O454  1  0.93840000  0.56380000  0.06380000  1
  O  O455  1  0.88140000  0.52150000  0.02150000  1
  O  O456  1  0.27829000  0.10105000  0.04497000  1
  O  O457  1  0.27845000  0.01495000  0.06315000  1
  O  O458  1  0.57774000  0.36236000  0.41376000  1
  O  O459  1  0.35498000  0.12792000  0.94212000  1
  O  O460  1  0.41500000  0.17230000  0.98630000  1
  O  O461  1  0.58340000  0.12940000  0.94540000  1
  O  O462  1  0.40010000  0.02840000  0.07140000  1
  O  O463  1  0.37934000  0.04497000  0.39895000  1
  O  O464  1  0.29340000  0.06315000  0.48505000  1
  O  O465  1  0.94010000  0.41376000  0.13764000  1
  O  O466  1  0.48290000  0.94212000  0.37208000  1
  O  O467  1  0.58730000  0.98630000  0.32770000  1
  O  O468  1  0.71280000  0.94540000  0.37060000  1
  O  O469  1  0.42850000  0.07140000  0.47160000  1
  O  O470  1  0.42431000  0.39895000  0.45503000  1
  O  O471  1  0.35655000  0.48505000  0.43685000  1
  O  O472  1  0.35386000  0.13764000  0.08624000  1
  O  O473  1  0.42502000  0.37208000  0.55788000  1
  O  O474  1  0.57360000  0.32770000  0.51370000  1
  O  O475  1  0.65820000  0.37060000  0.55460000  1
  O  O476  1  0.49990000  0.47160000  0.42860000  1
  O  O477  1  0.82326000  0.45503000  0.10105000  1
  O  O478  1  0.84160000  0.43685000  0.01495000  1
  O  O479  1  0.49150000  0.08624000  0.36236000  1
  O  O480  1  0.79710000  0.55788000  0.12792000  1
  O  O481  1  0.90130000  0.51370000  0.17230000  1
  O  O482  1  0.02880000  0.55460000  0.12940000  1
  O  O483  1  0.97150000  0.42860000  0.02840000  1
  O  O484  1  0.57569000  0.04497000  0.10105000  1
  O  O485  1  0.64345000  0.06315000  0.01495000  1
  O  O486  1  0.64614000  0.41376000  0.36236000  1
  O  O487  1  0.57498000  0.94212000  0.12792000  1
  O  O488  1  0.42640000  0.98630000  0.17230000  1
  O  O489  1  0.34180000  0.94540000  0.12940000  1
  O  O490  1  0.50010000  0.07140000  0.02840000  1
  O  O491  1  0.62066000  0.10105000  0.45503000  1
  O  O492  1  0.70660000  0.01495000  0.43685000  1
  O  O493  1  0.05990000  0.36236000  0.08624000  1
  O  O494  1  0.51710000  0.12792000  0.55788000  1
  O  O495  1  0.41270000  0.17230000  0.51370000  1
  O  O496  1  0.28720000  0.12940000  0.55460000  1
  O  O497  1  0.57150000  0.02840000  0.42860000  1
  O  O498  1  0.72171000  0.45503000  0.39895000  1
  O  O499  1  0.72155000  0.43685000  0.48505000  1
  O  O500  1  0.42226000  0.08624000  0.13764000  1
  O  O501  1  0.64502000  0.55788000  0.37208000  1
  O  O502  1  0.58500000  0.51370000  0.32770000  1
  O  O503  1  0.41660000  0.55460000  0.37060000  1
  O  O504  1  0.59990000  0.42860000  0.47160000  1
  O  O505  1  0.17674000  0.39895000  0.04497000  1
  O  O506  1  0.15840000  0.48505000  0.06315000  1
  O  O507  1  0.50850000  0.13764000  0.41376000  1
  O  O508  1  0.20290000  0.37208000  0.94212000  1
  O  O509  1  0.09870000  0.32770000  0.98630000  1
  O  O510  1  0.97120000  0.37060000  0.94540000  1
  O  O511  1  0.02850000  0.47160000  0.07140000  1
  Zr  Zr512  1  0.60014000  0.90773000  0.99085000  1
  Zr  Zr513  1  0.60132000  0.04061000  0.95939000  1
  Zr  Zr514  1  0.50787000  0.99085000  0.59227000  1
  Zr  Zr515  1  0.64193000  0.95939000  0.45939000  1
  Zr  Zr516  1  0.49872000  0.59227000  0.50915000  1
  Zr  Zr517  1  0.60132000  0.45939000  0.54061000  1
  Zr  Zr518  1  0.09099000  0.50915000  0.90773000  1
  Zr  Zr519  1  0.06071000  0.54061000  0.04061000  1
  Zr  Zr520  1  0.50128000  0.99085000  0.90773000  1
  Zr  Zr521  1  0.39868000  0.95939000  0.04061000  1
  Zr  Zr522  1  0.49213000  0.90773000  0.50915000  1
  Zr  Zr523  1  0.35807000  0.04061000  0.54061000  1
  Zr  Zr524  1  0.39986000  0.50915000  0.59227000  1
  Zr  Zr525  1  0.39868000  0.54061000  0.45939000  1
  Zr  Zr526  1  0.90901000  0.59227000  0.99085000  1
  Zr  Zr527  1  0.93929000  0.45939000  0.95939000  1
  Zr  Zr528  1  0.39986000  0.09227000  0.00915000  1
  Zr  Zr529  1  0.49213000  0.00915000  0.40773000  1
  Zr  Zr530  1  0.50128000  0.40773000  0.49085000  1
  Zr  Zr531  1  0.90901000  0.49085000  0.09227000  1
  Zr  Zr532  1  0.49872000  0.00915000  0.09227000  1
  Zr  Zr533  1  0.50787000  0.09227000  0.49085000  1
  Zr  Zr534  1  0.60014000  0.49085000  0.40773000  1
  Zr  Zr535  1  0.09099000  0.40773000  0.00915000  1
