# generated using pymatgen
data_Zr3H8C20(S3O8)2
_symmetry_space_group_name_H-M   'P 1'
_cell_length_a   35.32988322
_cell_length_b   35.32988322
_cell_length_c   35.32988322
_cell_angle_alpha   60.00000000
_cell_angle_beta   60.00000000
_cell_angle_gamma   60.00000000
_symmetry_Int_Tables_number   1
_chemical_formula_structural   Zr3H8C20(S3O8)2
_chemical_formula_sum   'Zr36 H96 C240 S72 O192'
_cell_volume   31182.54858834
_cell_formula_units_Z   12
loop_
 _symmetry_equiv_pos_site_id
 _symmetry_equiv_pos_as_xyz
  1  'x, y, z'
loop_
 _atom_site_type_symbol
 _atom_site_label
 _atom_site_symmetry_multiplicity
 _atom_site_fract_x
 _atom_site_fract_y
 _atom_site_fract_z
 _atom_site_occupancy
  C  C0  1  0.63890000  0.06002000  0.48348000  1.0
  C  C1  1  0.63135000  0.09823000  0.48957000  1.0
  C  C2  1  0.67232000  0.09798000  0.48770000  1.0
  C  C3  1  0.60491000  0.04673000  0.48415000  1.0
  C  C4  1  0.70979000  0.05895000  0.48121000  1.0
  C  C5  1  0.81760000  0.48348000  0.06002000  1.0
  C  C6  1  0.78085000  0.48957000  0.09823000  1.0
  C  C7  1  0.74200000  0.48770000  0.09798000  1.0
  C  C8  1  0.86421000  0.48415000  0.04673000  1.0
  C  C9  1  0.75005000  0.48121000  0.05895000  1.0
  C  C10  1  0.48348000  0.81760000  0.63890000  1.0
  C  C11  1  0.48957000  0.78085000  0.63135000  1.0
  C  C12  1  0.48770000  0.74200000  0.67232000  1.0
  C  C13  1  0.48415000  0.86421000  0.60491000  1.0
  C  C14  1  0.48121000  0.75005000  0.70979000  1.0
  C  C15  1  0.06002000  0.63890000  0.81760000  1.0
  C  C16  1  0.09823000  0.63135000  0.78085000  1.0
  C  C17  1  0.09798000  0.67232000  0.74200000  1.0
  C  C18  1  0.04673000  0.60491000  0.86421000  1.0
  C  C19  1  0.05895000  0.70979000  0.75005000  1.0
  C  C20  1  0.06002000  0.48348000  0.63890000  1.0
  C  C21  1  0.09823000  0.48957000  0.63135000  1.0
  C  C22  1  0.09798000  0.48770000  0.67232000  1.0
  C  C23  1  0.04673000  0.48415000  0.60491000  1.0
  C  C24  1  0.05895000  0.48121000  0.70979000  1.0
  C  C25  1  0.48348000  0.06002000  0.81760000  1.0
  C  C26  1  0.48957000  0.09823000  0.78085000  1.0
  C  C27  1  0.48770000  0.09798000  0.74200000  1.0
  C  C28  1  0.48415000  0.04673000  0.86421000  1.0
  C  C29  1  0.48121000  0.05895000  0.75005000  1.0
  C  C30  1  0.81760000  0.63890000  0.48348000  1.0
  C  C31  1  0.78085000  0.63135000  0.48957000  1.0
  C  C32  1  0.74200000  0.67232000  0.48770000  1.0
  C  C33  1  0.86421000  0.60491000  0.48415000  1.0
  C  C34  1  0.75005000  0.70979000  0.48121000  1.0
  C  C35  1  0.63890000  0.81760000  0.06002000  1.0
  C  C36  1  0.63135000  0.78085000  0.09823000  1.0
  C  C37  1  0.67232000  0.74200000  0.09798000  1.0
  C  C38  1  0.60491000  0.86421000  0.04673000  1.0
  C  C39  1  0.70979000  0.75005000  0.05895000  1.0
  C  C40  1  0.48348000  0.63890000  0.06002000  1.0
  C  C41  1  0.48957000  0.63135000  0.09823000  1.0
  C  C42  1  0.48770000  0.67232000  0.09798000  1.0
  C  C43  1  0.48415000  0.60491000  0.04673000  1.0
  C  C44  1  0.48121000  0.70979000  0.05895000  1.0
  C  C45  1  0.06002000  0.81760000  0.48348000  1.0
  C  C46  1  0.09823000  0.78085000  0.48957000  1.0
  C  C47  1  0.09798000  0.74200000  0.48770000  1.0
  C  C48  1  0.04673000  0.86421000  0.48415000  1.0
  C  C49  1  0.05895000  0.75005000  0.48121000  1.0
  C  C50  1  0.63890000  0.48348000  0.81760000  1.0
  C  C51  1  0.63135000  0.48957000  0.78085000  1.0
  C  C52  1  0.67232000  0.48770000  0.74200000  1.0
  C  C53  1  0.60491000  0.48415000  0.86421000  1.0
  C  C54  1  0.70979000  0.48121000  0.75005000  1.0
  C  C55  1  0.81760000  0.06002000  0.63890000  1.0
  C  C56  1  0.78085000  0.09823000  0.63135000  1.0
  C  C57  1  0.74200000  0.09798000  0.67232000  1.0
  C  C58  1  0.86421000  0.04673000  0.60491000  1.0
  C  C59  1  0.75005000  0.05895000  0.70979000  1.0
  C  C60  1  0.18240000  0.93998000  0.51652000  1.0
  C  C61  1  0.21915000  0.90177000  0.51043000  1.0
  C  C62  1  0.25800000  0.90202000  0.51230000  1.0
  C  C63  1  0.13579000  0.95327000  0.51585000  1.0
  C  C64  1  0.24995000  0.94105000  0.51879000  1.0
  C  C65  1  0.36110000  0.51652000  0.93998000  1.0
  C  C66  1  0.36865000  0.51043000  0.90177000  1.0
  C  C67  1  0.32768000  0.51230000  0.90202000  1.0
  C  C68  1  0.39509000  0.51585000  0.95327000  1.0
  C  C69  1  0.29021000  0.51879000  0.94105000  1.0
  C  C70  1  0.93998000  0.18240000  0.36110000  1.0
  C  C71  1  0.90177000  0.21915000  0.36865000  1.0
  C  C72  1  0.90202000  0.25800000  0.32768000  1.0
  C  C73  1  0.95327000  0.13579000  0.39509000  1.0
  C  C74  1  0.94105000  0.24995000  0.29021000  1.0
  C  C75  1  0.51652000  0.36110000  0.18240000  1.0
  C  C76  1  0.51043000  0.36865000  0.21915000  1.0
  C  C77  1  0.51230000  0.32768000  0.25800000  1.0
  C  C78  1  0.51585000  0.39509000  0.13579000  1.0
  C  C79  1  0.51879000  0.29021000  0.24995000  1.0
  C  C80  1  0.18240000  0.51652000  0.36110000  1.0
  C  C81  1  0.21915000  0.51043000  0.36865000  1.0
  C  C82  1  0.25800000  0.51230000  0.32768000  1.0
  C  C83  1  0.13579000  0.51585000  0.39509000  1.0
  C  C84  1  0.24995000  0.51879000  0.29021000  1.0
  C  C85  1  0.36110000  0.93998000  0.18240000  1.0
  C  C86  1  0.36865000  0.90177000  0.21915000  1.0
  C  C87  1  0.32768000  0.90202000  0.25800000  1.0
  C  C88  1  0.39509000  0.95327000  0.13579000  1.0
  C  C89  1  0.29021000  0.94105000  0.24995000  1.0
  C  C90  1  0.93998000  0.36110000  0.51652000  1.0
  C  C91  1  0.90177000  0.36865000  0.51043000  1.0
  C  C92  1  0.90202000  0.32768000  0.51230000  1.0
  C  C93  1  0.95327000  0.39509000  0.51585000  1.0
  C  C94  1  0.94105000  0.29021000  0.51879000  1.0
  C  C95  1  0.51652000  0.18240000  0.93998000  1.0
  C  C96  1  0.51043000  0.21915000  0.90177000  1.0
  C  C97  1  0.51230000  0.25800000  0.90202000  1.0
  C  C98  1  0.51585000  0.13579000  0.95327000  1.0
  C  C99  1  0.51879000  0.24995000  0.94105000  1.0
  C  C100  1  0.18240000  0.36110000  0.93998000  1.0
  C  C101  1  0.21915000  0.36865000  0.90177000  1.0
  C  C102  1  0.25800000  0.32768000  0.90202000  1.0
  C  C103  1  0.13579000  0.39509000  0.95327000  1.0
  C  C104  1  0.24995000  0.29021000  0.94105000  1.0
  C  C105  1  0.36110000  0.18240000  0.51652000  1.0
  C  C106  1  0.36865000  0.21915000  0.51043000  1.0
  C  C107  1  0.32768000  0.25800000  0.51230000  1.0
  C  C108  1  0.39509000  0.13579000  0.51585000  1.0
  C  C109  1  0.29021000  0.24995000  0.51879000  1.0
  C  C110  1  0.93998000  0.51652000  0.18240000  1.0
  C  C111  1  0.90177000  0.51043000  0.21915000  1.0
  C  C112  1  0.90202000  0.51230000  0.25800000  1.0
  C  C113  1  0.95327000  0.51585000  0.13579000  1.0
  C  C114  1  0.94105000  0.51879000  0.24995000  1.0
  C  C115  1  0.51652000  0.93998000  0.36110000  1.0
  C  C116  1  0.51043000  0.90177000  0.36865000  1.0
  C  C117  1  0.51230000  0.90202000  0.32768000  1.0
  C  C118  1  0.51585000  0.95327000  0.39509000  1.0
  C  C119  1  0.51879000  0.94105000  0.29021000  1.0
  C  C120  1  0.36110000  0.93998000  0.51652000  1.0
  C  C121  1  0.36865000  0.90177000  0.51043000  1.0
  C  C122  1  0.32768000  0.90202000  0.51230000  1.0
  C  C123  1  0.39509000  0.95327000  0.51585000  1.0
  C  C124  1  0.29021000  0.94105000  0.51879000  1.0
  C  C125  1  0.18240000  0.51652000  0.93998000  1.0
  C  C126  1  0.21915000  0.51043000  0.90177000  1.0
  C  C127  1  0.25800000  0.51230000  0.90202000  1.0
  C  C128  1  0.13579000  0.51585000  0.95327000  1.0
  C  C129  1  0.24995000  0.51879000  0.94105000  1.0
  C  C130  1  0.51652000  0.18240000  0.36110000  1.0
  C  C131  1  0.51043000  0.21915000  0.36865000  1.0
  C  C132  1  0.51230000  0.25800000  0.32768000  1.0
  C  C133  1  0.51585000  0.13579000  0.39509000  1.0
  C  C134  1  0.51879000  0.24995000  0.29021000  1.0
  C  C135  1  0.93998000  0.36110000  0.18240000  1.0
  C  C136  1  0.90177000  0.36865000  0.21915000  1.0
  C  C137  1  0.90202000  0.32768000  0.25800000  1.0
  C  C138  1  0.95327000  0.39509000  0.13579000  1.0
  C  C139  1  0.94105000  0.29021000  0.24995000  1.0
  C  C140  1  0.93998000  0.51652000  0.36110000  1.0
  C  C141  1  0.90177000  0.51043000  0.36865000  1.0
  C  C142  1  0.90202000  0.51230000  0.32768000  1.0
  C  C143  1  0.95327000  0.51585000  0.39509000  1.0
  C  C144  1  0.94105000  0.51879000  0.29021000  1.0
  C  C145  1  0.51652000  0.93998000  0.18240000  1.0
  C  C146  1  0.51043000  0.90177000  0.21915000  1.0
  C  C147  1  0.51230000  0.90202000  0.25800000  1.0
  C  C148  1  0.51585000  0.95327000  0.13579000  1.0
  C  C149  1  0.51879000  0.94105000  0.24995000  1.0
  C  C150  1  0.18240000  0.36110000  0.51652000  1.0
  C  C151  1  0.21915000  0.36865000  0.51043000  1.0
  C  C152  1  0.25800000  0.32768000  0.51230000  1.0
  C  C153  1  0.13579000  0.39509000  0.51585000  1.0
  C  C154  1  0.24995000  0.29021000  0.51879000  1.0
  C  C155  1  0.36110000  0.18240000  0.93998000  1.0
  C  C156  1  0.36865000  0.21915000  0.90177000  1.0
  C  C157  1  0.32768000  0.25800000  0.90202000  1.0
  C  C158  1  0.39509000  0.13579000  0.95327000  1.0
  C  C159  1  0.29021000  0.24995000  0.94105000  1.0
  C  C160  1  0.51652000  0.36110000  0.93998000  1.0
  C  C161  1  0.51043000  0.36865000  0.90177000  1.0
  C  C162  1  0.51230000  0.32768000  0.90202000  1.0
  C  C163  1  0.51585000  0.39509000  0.95327000  1.0
  C  C164  1  0.51879000  0.29021000  0.94105000  1.0
  C  C165  1  0.93998000  0.18240000  0.51652000  1.0
  C  C166  1  0.90177000  0.21915000  0.51043000  1.0
  C  C167  1  0.90202000  0.25800000  0.51230000  1.0
  C  C168  1  0.95327000  0.13579000  0.51585000  1.0
  C  C169  1  0.94105000  0.24995000  0.51879000  1.0
  C  C170  1  0.36110000  0.51652000  0.18240000  1.0
  C  C171  1  0.36865000  0.51043000  0.21915000  1.0
  C  C172  1  0.32768000  0.51230000  0.25800000  1.0
  C  C173  1  0.39509000  0.51585000  0.13579000  1.0
  C  C174  1  0.29021000  0.51879000  0.24995000  1.0
  C  C175  1  0.18240000  0.93998000  0.36110000  1.0
  C  C176  1  0.21915000  0.90177000  0.36865000  1.0
  C  C177  1  0.25800000  0.90202000  0.32768000  1.0
  C  C178  1  0.13579000  0.95327000  0.39509000  1.0
  C  C179  1  0.24995000  0.94105000  0.29021000  1.0
  C  C180  1  0.81760000  0.06002000  0.48348000  1.0
  C  C181  1  0.78085000  0.09823000  0.48957000  1.0
  C  C182  1  0.74200000  0.09798000  0.48770000  1.0
  C  C183  1  0.86421000  0.04673000  0.48415000  1.0
  C  C184  1  0.75005000  0.05895000  0.48121000  1.0
  C  C185  1  0.63890000  0.48348000  0.06002000  1.0
  C  C186  1  0.63135000  0.48957000  0.09823000  1.0
  C  C187  1  0.67232000  0.48770000  0.09798000  1.0
  C  C188  1  0.60491000  0.48415000  0.04673000  1.0
  C  C189  1  0.70979000  0.48121000  0.05895000  1.0
  C  C190  1  0.06002000  0.81760000  0.63890000  1.0
  C  C191  1  0.09823000  0.78085000  0.63135000  1.0
  C  C192  1  0.09798000  0.74200000  0.67232000  1.0
  C  C193  1  0.04673000  0.86421000  0.60491000  1.0
  C  C194  1  0.05895000  0.75005000  0.70979000  1.0
  C  C195  1  0.48348000  0.63890000  0.81760000  1.0
  C  C196  1  0.48957000  0.63135000  0.78085000  1.0
  C  C197  1  0.48770000  0.67232000  0.74200000  1.0
  C  C198  1  0.48415000  0.60491000  0.86421000  1.0
  C  C199  1  0.48121000  0.70979000  0.75005000  1.0
  C  C200  1  0.81760000  0.48348000  0.63890000  1.0
  C  C201  1  0.78085000  0.48957000  0.63135000  1.0
  C  C202  1  0.74200000  0.48770000  0.67232000  1.0
  C  C203  1  0.86421000  0.48415000  0.60491000  1.0
  C  C204  1  0.75005000  0.48121000  0.70979000  1.0
  C  C205  1  0.63890000  0.06002000  0.81760000  1.0
  C  C206  1  0.63135000  0.09823000  0.78085000  1.0
  C  C207  1  0.67232000  0.09798000  0.74200000  1.0
  C  C208  1  0.60491000  0.04673000  0.86421000  1.0
  C  C209  1  0.70979000  0.05895000  0.75005000  1.0
  C  C210  1  0.06002000  0.63890000  0.48348000  1.0
  C  C211  1  0.09823000  0.63135000  0.48957000  1.0
  C  C212  1  0.09798000  0.67232000  0.48770000  1.0
  C  C213  1  0.04673000  0.60491000  0.48415000  1.0
  C  C214  1  0.05895000  0.70979000  0.48121000  1.0
  C  C215  1  0.48348000  0.81760000  0.06002000  1.0
  C  C216  1  0.48957000  0.78085000  0.09823000  1.0
  C  C217  1  0.48770000  0.74200000  0.09798000  1.0
  C  C218  1  0.48415000  0.86421000  0.04673000  1.0
  C  C219  1  0.48121000  0.75005000  0.05895000  1.0
  C  C220  1  0.81760000  0.63890000  0.06002000  1.0
  C  C221  1  0.78085000  0.63135000  0.09823000  1.0
  C  C222  1  0.74200000  0.67232000  0.09798000  1.0
  C  C223  1  0.86421000  0.60491000  0.04673000  1.0
  C  C224  1  0.75005000  0.70979000  0.05895000  1.0
  C  C225  1  0.63890000  0.81760000  0.48348000  1.0
  C  C226  1  0.63135000  0.78085000  0.48957000  1.0
  C  C227  1  0.67232000  0.74200000  0.48770000  1.0
  C  C228  1  0.60491000  0.86421000  0.48415000  1.0
  C  C229  1  0.70979000  0.75005000  0.48121000  1.0
  C  C230  1  0.06002000  0.48348000  0.81760000  1.0
  C  C231  1  0.09823000  0.48957000  0.78085000  1.0
  C  C232  1  0.09798000  0.48770000  0.74200000  1.0
  C  C233  1  0.04673000  0.48415000  0.86421000  1.0
  C  C234  1  0.05895000  0.48121000  0.75005000  1.0
  C  C235  1  0.48348000  0.06002000  0.63890000  1.0
  C  C236  1  0.48957000  0.09823000  0.63135000  1.0
  C  C237  1  0.48770000  0.09798000  0.67232000  1.0
  C  C238  1  0.48415000  0.04673000  0.60491000  1.0
  C  C239  1  0.48121000  0.05895000  0.70979000  1.0
  H  H240  1  0.59528000  0.12542000  0.49528000  1.0
  H  H241  1  0.78402000  0.49528000  0.12542000  1.0
  H  H242  1  0.49528000  0.78402000  0.59528000  1.0
  H  H243  1  0.12542000  0.59528000  0.78402000  1.0
  H  H244  1  0.12542000  0.49528000  0.59528000  1.0
  H  H245  1  0.49528000  0.12542000  0.78402000  1.0
  H  H246  1  0.78402000  0.59528000  0.49528000  1.0
  H  H247  1  0.59528000  0.78402000  0.12542000  1.0
  H  H248  1  0.49528000  0.59528000  0.12542000  1.0
  H  H249  1  0.12542000  0.78402000  0.49528000  1.0
  H  H250  1  0.59528000  0.49528000  0.78402000  1.0
  H  H251  1  0.78402000  0.12542000  0.59528000  1.0
  H  H252  1  0.21598000  0.87458000  0.50472000  1.0
  H  H253  1  0.40472000  0.50472000  0.87458000  1.0
  H  H254  1  0.87458000  0.21598000  0.40472000  1.0
  H  H255  1  0.50472000  0.40472000  0.21598000  1.0
  H  H256  1  0.21598000  0.50472000  0.40472000  1.0
  H  H257  1  0.40472000  0.87458000  0.21598000  1.0
  H  H258  1  0.87458000  0.40472000  0.50472000  1.0
  H  H259  1  0.50472000  0.21598000  0.87458000  1.0
  H  H260  1  0.21598000  0.40472000  0.87458000  1.0
  H  H261  1  0.40472000  0.21598000  0.50472000  1.0
  H  H262  1  0.87458000  0.50472000  0.21598000  1.0
  H  H263  1  0.50472000  0.87458000  0.40472000  1.0
  H  H264  1  0.40472000  0.87458000  0.50472000  1.0
  H  H265  1  0.21598000  0.50472000  0.87458000  1.0
  H  H266  1  0.50472000  0.21598000  0.40472000  1.0
  H  H267  1  0.87458000  0.40472000  0.21598000  1.0
  H  H268  1  0.87458000  0.50472000  0.40472000  1.0
  H  H269  1  0.50472000  0.87458000  0.21598000  1.0
  H  H270  1  0.21598000  0.40472000  0.50472000  1.0
  H  H271  1  0.40472000  0.21598000  0.87458000  1.0
  H  H272  1  0.50472000  0.40472000  0.87458000  1.0
  H  H273  1  0.87458000  0.21598000  0.50472000  1.0
  H  H274  1  0.40472000  0.50472000  0.21598000  1.0
  H  H275  1  0.21598000  0.87458000  0.40472000  1.0
  H  H276  1  0.78402000  0.12542000  0.49528000  1.0
  H  H277  1  0.59528000  0.49528000  0.12542000  1.0
  H  H278  1  0.12542000  0.78402000  0.59528000  1.0
  H  H279  1  0.49528000  0.59528000  0.78402000  1.0
  H  H280  1  0.78402000  0.49528000  0.59528000  1.0
  H  H281  1  0.59528000  0.12542000  0.78402000  1.0
  H  H282  1  0.12542000  0.59528000  0.49528000  1.0
  H  H283  1  0.49528000  0.78402000  0.12542000  1.0
  H  H284  1  0.78402000  0.59528000  0.12542000  1.0
  H  H285  1  0.59528000  0.78402000  0.49528000  1.0
  H  H286  1  0.12542000  0.49528000  0.78402000  1.0
  H  H287  1  0.49528000  0.12542000  0.59528000  1.0
  H  H288  1  0.60230000  0.89900000  0.55526000  1.0
  H  H289  1  0.62277000  0.94425000  0.44429000  1.0
  H  H290  1  0.89900000  0.51082000  0.94344000  1.0
  H  H291  1  0.94425000  0.39985000  0.98869000  1.0
  H  H292  1  0.51082000  0.89900000  0.64674000  1.0
  H  H293  1  0.39985000  0.94425000  0.66721000  1.0
  H  H294  1  0.89900000  0.60230000  0.94344000  1.0
  H  H295  1  0.94425000  0.62277000  0.98869000  1.0
  H  H296  1  0.89900000  0.51082000  0.64674000  1.0
  H  H297  1  0.94425000  0.39985000  0.66721000  1.0
  H  H298  1  0.51082000  0.89900000  0.94344000  1.0
  H  H299  1  0.39985000  0.94425000  0.98869000  1.0
  H  H300  1  0.89900000  0.60230000  0.55526000  1.0
  H  H301  1  0.94425000  0.62277000  0.44429000  1.0
  H  H302  1  0.60230000  0.89900000  0.94344000  1.0
  H  H303  1  0.62277000  0.94425000  0.98869000  1.0
  H  H304  1  0.51082000  0.60230000  0.94344000  1.0
  H  H305  1  0.39985000  0.62277000  0.98869000  1.0
  H  H306  1  0.89900000  0.89900000  0.55526000  1.0
  H  H307  1  0.94425000  0.94425000  0.44429000  1.0
  H  H308  1  0.60230000  0.51082000  0.94344000  1.0
  H  H309  1  0.62277000  0.39985000  0.98869000  1.0
  H  H310  1  0.89900000  0.89900000  0.64674000  1.0
  H  H311  1  0.94425000  0.94425000  0.66721000  1.0
  H  H312  1  0.05656000  0.05656000  0.48918000  1.0
  H  H313  1  0.01131000  0.01131000  0.60015000  1.0
  H  H314  1  0.35326000  0.44474000  0.10100000  1.0
  H  H315  1  0.33279000  0.55571000  0.05575000  1.0
  H  H316  1  0.05656000  0.05656000  0.39770000  1.0
  H  H317  1  0.01131000  0.01131000  0.37723000  1.0
  H  H318  1  0.44474000  0.35326000  0.10100000  1.0
  H  H319  1  0.55571000  0.33279000  0.05575000  1.0
  H  H320  1  0.05656000  0.44474000  0.39770000  1.0
  H  H321  1  0.01131000  0.55571000  0.37723000  1.0
  H  H322  1  0.35326000  0.05656000  0.10100000  1.0
  H  H323  1  0.33279000  0.01131000  0.05575000  1.0
  H  H324  1  0.05656000  0.35326000  0.48918000  1.0
  H  H325  1  0.01131000  0.33279000  0.60015000  1.0
  H  H326  1  0.44474000  0.05656000  0.10100000  1.0
  H  H327  1  0.55571000  0.01131000  0.05575000  1.0
  H  H328  1  0.05656000  0.35326000  0.10100000  1.0
  H  H329  1  0.01131000  0.33279000  0.05575000  1.0
  H  H330  1  0.35326000  0.05656000  0.48918000  1.0
  H  H331  1  0.33279000  0.01131000  0.60015000  1.0
  H  H332  1  0.05656000  0.44474000  0.10100000  1.0
  H  H333  1  0.01131000  0.55571000  0.05575000  1.0
  H  H334  1  0.44474000  0.05656000  0.39770000  1.0
  H  H335  1  0.55571000  0.01131000  0.37723000  1.0
  O  O336  1  0.56454000  0.07538000  0.48904000  1.0
  O  O337  1  0.61952000  0.00798000  0.47984000  1.0
  O  O338  1  0.87104000  0.48904000  0.07538000  1.0
  O  O339  1  0.89266000  0.47984000  0.00798000  1.0
  O  O340  1  0.48904000  0.87104000  0.56454000  1.0
  O  O341  1  0.47984000  0.89266000  0.61952000  1.0
  O  O342  1  0.07538000  0.56454000  0.87104000  1.0
  O  O343  1  0.00798000  0.61952000  0.89266000  1.0
  O  O344  1  0.07538000  0.48904000  0.56454000  1.0
  O  O345  1  0.00798000  0.47984000  0.61952000  1.0
  O  O346  1  0.48904000  0.07538000  0.87104000  1.0
  O  O347  1  0.47984000  0.00798000  0.89266000  1.0
  O  O348  1  0.87104000  0.56454000  0.48904000  1.0
  O  O349  1  0.89266000  0.61952000  0.47984000  1.0
  O  O350  1  0.56454000  0.87104000  0.07538000  1.0
  O  O351  1  0.61952000  0.89266000  0.00798000  1.0
  O  O352  1  0.48904000  0.56454000  0.07538000  1.0
  O  O353  1  0.47984000  0.61952000  0.00798000  1.0
  O  O354  1  0.07538000  0.87104000  0.48904000  1.0
  O  O355  1  0.00798000  0.89266000  0.47984000  1.0
  O  O356  1  0.56454000  0.48904000  0.87104000  1.0
  O  O357  1  0.61952000  0.47984000  0.89266000  1.0
  O  O358  1  0.87104000  0.07538000  0.56454000  1.0
  O  O359  1  0.89266000  0.00798000  0.61952000  1.0
  O  O360  1  0.12896000  0.92462000  0.51096000  1.0
  O  O361  1  0.10734000  0.99202000  0.52016000  1.0
  O  O362  1  0.43546000  0.51096000  0.92462000  1.0
  O  O363  1  0.38048000  0.52016000  0.99202000  1.0
  O  O364  1  0.92462000  0.12896000  0.43546000  1.0
  O  O365  1  0.99202000  0.10734000  0.38048000  1.0
  O  O366  1  0.51096000  0.43546000  0.12896000  1.0
  O  O367  1  0.52016000  0.38048000  0.10734000  1.0
  O  O368  1  0.12896000  0.51096000  0.43546000  1.0
  O  O369  1  0.10734000  0.52016000  0.38048000  1.0
  O  O370  1  0.43546000  0.92462000  0.12896000  1.0
  O  O371  1  0.38048000  0.99202000  0.10734000  1.0
  O  O372  1  0.92462000  0.43546000  0.51096000  1.0
  O  O373  1  0.99202000  0.38048000  0.52016000  1.0
  O  O374  1  0.51096000  0.12896000  0.92462000  1.0
  O  O375  1  0.52016000  0.10734000  0.99202000  1.0
  O  O376  1  0.12896000  0.43546000  0.92462000  1.0
  O  O377  1  0.10734000  0.38048000  0.99202000  1.0
  O  O378  1  0.43546000  0.12896000  0.51096000  1.0
  O  O379  1  0.38048000  0.10734000  0.52016000  1.0
  O  O380  1  0.92462000  0.51096000  0.12896000  1.0
  O  O381  1  0.99202000  0.52016000  0.10734000  1.0
  O  O382  1  0.51096000  0.92462000  0.43546000  1.0
  O  O383  1  0.52016000  0.99202000  0.38048000  1.0
  O  O384  1  0.43546000  0.92462000  0.51096000  1.0
  O  O385  1  0.38048000  0.99202000  0.52016000  1.0
  O  O386  1  0.12896000  0.51096000  0.92462000  1.0
  O  O387  1  0.10734000  0.52016000  0.99202000  1.0
  O  O388  1  0.51096000  0.12896000  0.43546000  1.0
  O  O389  1  0.52016000  0.10734000  0.38048000  1.0
  O  O390  1  0.92462000  0.43546000  0.12896000  1.0
  O  O391  1  0.99202000  0.38048000  0.10734000  1.0
  O  O392  1  0.92462000  0.51096000  0.43546000  1.0
  O  O393  1  0.99202000  0.52016000  0.38048000  1.0
  O  O394  1  0.51096000  0.92462000  0.12896000  1.0
  O  O395  1  0.52016000  0.99202000  0.10734000  1.0
  O  O396  1  0.12896000  0.43546000  0.51096000  1.0
  O  O397  1  0.10734000  0.38048000  0.52016000  1.0
  O  O398  1  0.43546000  0.12896000  0.92462000  1.0
  O  O399  1  0.38048000  0.10734000  0.99202000  1.0
  O  O400  1  0.51096000  0.43546000  0.92462000  1.0
  O  O401  1  0.52016000  0.38048000  0.99202000  1.0
  O  O402  1  0.92462000  0.12896000  0.51096000  1.0
  O  O403  1  0.99202000  0.10734000  0.52016000  1.0
  O  O404  1  0.43546000  0.51096000  0.12896000  1.0
  O  O405  1  0.38048000  0.52016000  0.10734000  1.0
  O  O406  1  0.12896000  0.92462000  0.43546000  1.0
  O  O407  1  0.10734000  0.99202000  0.38048000  1.0
  O  O408  1  0.87104000  0.07538000  0.48904000  1.0
  O  O409  1  0.89266000  0.00798000  0.47984000  1.0
  O  O410  1  0.56454000  0.48904000  0.07538000  1.0
  O  O411  1  0.61952000  0.47984000  0.00798000  1.0
  O  O412  1  0.07538000  0.87104000  0.56454000  1.0
  O  O413  1  0.00798000  0.89266000  0.61952000  1.0
  O  O414  1  0.48904000  0.56454000  0.87104000  1.0
  O  O415  1  0.47984000  0.61952000  0.89266000  1.0
  O  O416  1  0.87104000  0.48904000  0.56454000  1.0
  O  O417  1  0.89266000  0.47984000  0.61952000  1.0
  O  O418  1  0.56454000  0.07538000  0.87104000  1.0
  O  O419  1  0.61952000  0.00798000  0.89266000  1.0
  O  O420  1  0.07538000  0.56454000  0.48904000  1.0
  O  O421  1  0.00798000  0.61952000  0.47984000  1.0
  O  O422  1  0.48904000  0.87104000  0.07538000  1.0
  O  O423  1  0.47984000  0.89266000  0.00798000  1.0
  O  O424  1  0.87104000  0.56454000  0.07538000  1.0
  O  O425  1  0.89266000  0.61952000  0.00798000  1.0
  O  O426  1  0.56454000  0.87104000  0.48904000  1.0
  O  O427  1  0.61952000  0.89266000  0.47984000  1.0
  O  O428  1  0.07538000  0.48904000  0.87104000  1.0
  O  O429  1  0.00798000  0.47984000  0.89266000  1.0
  O  O430  1  0.48904000  0.07538000  0.56454000  1.0
  O  O431  1  0.47984000  0.00798000  0.61952000  1.0
  O  O432  1  0.62452000  0.92122000  0.53304000  1.0
  O  O433  1  0.64499000  0.96647000  0.42207000  1.0
  O  O434  1  0.92122000  0.53304000  0.92122000  1.0
  O  O435  1  0.96647000  0.42207000  0.96647000  1.0
  O  O436  1  0.53304000  0.92122000  0.62452000  1.0
  O  O437  1  0.42207000  0.96647000  0.64499000  1.0
  O  O438  1  0.92122000  0.62452000  0.92122000  1.0
  O  O439  1  0.96647000  0.64499000  0.96647000  1.0
  O  O440  1  0.92122000  0.53304000  0.62452000  1.0
  O  O441  1  0.96647000  0.42207000  0.64499000  1.0
  O  O442  1  0.53304000  0.92122000  0.92122000  1.0
  O  O443  1  0.42207000  0.96647000  0.96647000  1.0
  O  O444  1  0.92122000  0.62452000  0.53304000  1.0
  O  O445  1  0.96647000  0.64499000  0.42207000  1.0
  O  O446  1  0.62452000  0.92122000  0.92122000  1.0
  O  O447  1  0.64499000  0.96647000  0.96647000  1.0
  O  O448  1  0.53304000  0.62452000  0.92122000  1.0
  O  O449  1  0.42207000  0.64499000  0.96647000  1.0
  O  O450  1  0.92122000  0.92122000  0.53304000  1.0
  O  O451  1  0.96647000  0.96647000  0.42207000  1.0
  O  O452  1  0.62452000  0.53304000  0.92122000  1.0
  O  O453  1  0.64499000  0.42207000  0.96647000  1.0
  O  O454  1  0.92122000  0.92122000  0.62452000  1.0
  O  O455  1  0.96647000  0.96647000  0.64499000  1.0
  O  O456  1  0.07878000  0.07878000  0.46696000  1.0
  O  O457  1  0.03353000  0.03353000  0.57793000  1.0
  O  O458  1  0.37548000  0.46696000  0.07878000  1.0
  O  O459  1  0.35501000  0.57793000  0.03353000  1.0
  O  O460  1  0.07878000  0.07878000  0.37548000  1.0
  O  O461  1  0.03353000  0.03353000  0.35501000  1.0
  O  O462  1  0.46696000  0.37548000  0.07878000  1.0
  O  O463  1  0.57793000  0.35501000  0.03353000  1.0
  O  O464  1  0.07878000  0.46696000  0.37548000  1.0
  O  O465  1  0.03353000  0.57793000  0.35501000  1.0
  O  O466  1  0.37548000  0.07878000  0.07878000  1.0
  O  O467  1  0.35501000  0.03353000  0.03353000  1.0
  O  O468  1  0.07878000  0.37548000  0.46696000  1.0
  O  O469  1  0.03353000  0.35501000  0.57793000  1.0
  O  O470  1  0.46696000  0.07878000  0.07878000  1.0
  O  O471  1  0.57793000  0.03353000  0.03353000  1.0
  O  O472  1  0.07878000  0.37548000  0.07878000  1.0
  O  O473  1  0.03353000  0.35501000  0.03353000  1.0
  O  O474  1  0.37548000  0.07878000  0.46696000  1.0
  O  O475  1  0.35501000  0.03353000  0.57793000  1.0
  O  O476  1  0.07878000  0.46696000  0.07878000  1.0
  O  O477  1  0.03353000  0.57793000  0.03353000  1.0
  O  O478  1  0.46696000  0.07878000  0.37548000  1.0
  O  O479  1  0.57793000  0.03353000  0.35501000  1.0
  O  O480  1  0.53491000  0.99881000  0.53491000  1.0
  O  O481  1  0.93137000  0.53491000  0.99881000  1.0
  O  O482  1  0.53491000  0.93137000  0.53491000  1.0
  O  O483  1  0.99881000  0.53491000  0.93137000  1.0
  O  O484  1  0.99881000  0.53491000  0.53491000  1.0
  O  O485  1  0.53491000  0.99881000  0.93137000  1.0
  O  O486  1  0.93137000  0.53491000  0.53491000  1.0
  O  O487  1  0.53491000  0.93137000  0.99881000  1.0
  O  O488  1  0.53491000  0.53491000  0.99881000  1.0
  O  O489  1  0.99881000  0.93137000  0.53491000  1.0
  O  O490  1  0.53491000  0.53491000  0.93137000  1.0
  O  O491  1  0.93137000  0.99881000  0.53491000  1.0
  O  O492  1  0.06863000  0.00119000  0.46509000  1.0
  O  O493  1  0.46509000  0.46509000  0.00119000  1.0
  O  O494  1  0.00119000  0.06863000  0.46509000  1.0
  O  O495  1  0.46509000  0.46509000  0.06863000  1.0
  O  O496  1  0.06863000  0.46509000  0.46509000  1.0
  O  O497  1  0.46509000  0.00119000  0.06863000  1.0
  O  O498  1  0.00119000  0.46509000  0.46509000  1.0
  O  O499  1  0.46509000  0.06863000  0.00119000  1.0
  O  O500  1  0.06863000  0.46509000  0.00119000  1.0
  O  O501  1  0.46509000  0.06863000  0.46509000  1.0
  O  O502  1  0.00119000  0.46509000  0.06863000  1.0
  O  O503  1  0.46509000  0.00119000  0.46509000  1.0
  O  O504  1  0.45005000  0.03417000  0.54995000  1.0
  O  O505  1  0.96583000  0.54995000  0.03417000  1.0
  O  O506  1  0.54995000  0.96583000  0.45005000  1.0
  O  O507  1  0.03417000  0.45005000  0.96583000  1.0
  O  O508  1  0.03417000  0.54995000  0.45005000  1.0
  O  O509  1  0.54995000  0.03417000  0.96583000  1.0
  O  O510  1  0.96583000  0.45005000  0.54995000  1.0
  O  O511  1  0.45005000  0.96583000  0.03417000  1.0
  O  O512  1  0.54995000  0.45005000  0.03417000  1.0
  O  O513  1  0.03417000  0.96583000  0.54995000  1.0
  O  O514  1  0.45005000  0.54995000  0.96583000  1.0
  O  O515  1  0.96583000  0.03417000  0.45005000  1.0
  O  O516  1  0.03417000  0.96583000  0.45005000  1.0
  O  O517  1  0.54995000  0.45005000  0.96583000  1.0
  O  O518  1  0.96583000  0.03417000  0.54995000  1.0
  O  O519  1  0.45005000  0.54995000  0.03417000  1.0
  O  O520  1  0.03417000  0.45005000  0.54995000  1.0
  O  O521  1  0.54995000  0.96583000  0.03417000  1.0
  O  O522  1  0.96583000  0.54995000  0.45005000  1.0
  O  O523  1  0.45005000  0.03417000  0.96583000  1.0
  O  O524  1  0.03417000  0.54995000  0.96583000  1.0
  O  O525  1  0.54995000  0.03417000  0.45005000  1.0
  O  O526  1  0.96583000  0.45005000  0.03417000  1.0
  O  O527  1  0.45005000  0.96583000  0.54995000  1.0
  S  S528  1  0.69543000  0.02197000  0.47697000  1.0
  S  S529  1  0.80563000  0.47697000  0.02197000  1.0
  S  S530  1  0.47697000  0.80563000  0.69543000  1.0
  S  S531  1  0.02197000  0.69543000  0.80563000  1.0
  S  S532  1  0.02197000  0.47697000  0.69543000  1.0
  S  S533  1  0.47697000  0.02197000  0.80563000  1.0
  S  S534  1  0.80563000  0.69543000  0.47697000  1.0
  S  S535  1  0.69543000  0.80563000  0.02197000  1.0
  S  S536  1  0.47697000  0.69543000  0.02197000  1.0
  S  S537  1  0.02197000  0.80563000  0.47697000  1.0
  S  S538  1  0.69543000  0.47697000  0.80563000  1.0
  S  S539  1  0.80563000  0.02197000  0.69543000  1.0
  S  S540  1  0.19437000  0.97803000  0.52303000  1.0
  S  S541  1  0.30457000  0.52303000  0.97803000  1.0
  S  S542  1  0.97803000  0.19437000  0.30457000  1.0
  S  S543  1  0.52303000  0.30457000  0.19437000  1.0
  S  S544  1  0.19437000  0.52303000  0.30457000  1.0
  S  S545  1  0.30457000  0.97803000  0.19437000  1.0
  S  S546  1  0.97803000  0.30457000  0.52303000  1.0
  S  S547  1  0.52303000  0.19437000  0.97803000  1.0
  S  S548  1  0.19437000  0.30457000  0.97803000  1.0
  S  S549  1  0.30457000  0.19437000  0.52303000  1.0
  S  S550  1  0.97803000  0.52303000  0.19437000  1.0
  S  S551  1  0.52303000  0.97803000  0.30457000  1.0
  S  S552  1  0.30457000  0.97803000  0.52303000  1.0
  S  S553  1  0.19437000  0.52303000  0.97803000  1.0
  S  S554  1  0.52303000  0.19437000  0.30457000  1.0
  S  S555  1  0.97803000  0.30457000  0.19437000  1.0
  S  S556  1  0.97803000  0.52303000  0.30457000  1.0
  S  S557  1  0.52303000  0.97803000  0.19437000  1.0
  S  S558  1  0.19437000  0.30457000  0.52303000  1.0
  S  S559  1  0.30457000  0.19437000  0.97803000  1.0
  S  S560  1  0.52303000  0.30457000  0.97803000  1.0
  S  S561  1  0.97803000  0.19437000  0.52303000  1.0
  S  S562  1  0.30457000  0.52303000  0.19437000  1.0
  S  S563  1  0.19437000  0.97803000  0.30457000  1.0
  S  S564  1  0.80563000  0.02197000  0.47697000  1.0
  S  S565  1  0.69543000  0.47697000  0.02197000  1.0
  S  S566  1  0.02197000  0.80563000  0.69543000  1.0
  S  S567  1  0.47697000  0.69543000  0.80563000  1.0
  S  S568  1  0.80563000  0.47697000  0.69543000  1.0
  S  S569  1  0.69543000  0.02197000  0.80563000  1.0
  S  S570  1  0.02197000  0.69543000  0.47697000  1.0
  S  S571  1  0.47697000  0.80563000  0.02197000  1.0
  S  S572  1  0.80563000  0.69543000  0.02197000  1.0
  S  S573  1  0.69543000  0.80563000  0.47697000  1.0
  S  S574  1  0.02197000  0.47697000  0.80563000  1.0
  S  S575  1  0.47697000  0.02197000  0.69543000  1.0
  S  S576  1  0.68539000  0.13577000  0.49345000  1.0
  S  S577  1  0.68539000  0.49345000  0.13577000  1.0
  S  S578  1  0.49345000  0.68539000  0.68539000  1.0
  S  S579  1  0.13577000  0.68539000  0.68539000  1.0
  S  S580  1  0.13577000  0.49345000  0.68539000  1.0
  S  S581  1  0.49345000  0.13577000  0.68539000  1.0
  S  S582  1  0.68539000  0.68539000  0.49345000  1.0
  S  S583  1  0.68539000  0.68539000  0.13577000  1.0
  S  S584  1  0.49345000  0.68539000  0.13577000  1.0
  S  S585  1  0.13577000  0.68539000  0.49345000  1.0
  S  S586  1  0.68539000  0.49345000  0.68539000  1.0
  S  S587  1  0.68539000  0.13577000  0.68539000  1.0
  S  S588  1  0.31461000  0.86423000  0.50655000  1.0
  S  S589  1  0.31461000  0.50655000  0.86423000  1.0
  S  S590  1  0.86423000  0.31461000  0.31461000  1.0
  S  S591  1  0.50655000  0.31461000  0.31461000  1.0
  S  S592  1  0.31461000  0.50655000  0.31461000  1.0
  S  S593  1  0.31461000  0.86423000  0.31461000  1.0
  S  S594  1  0.86423000  0.31461000  0.50655000  1.0
  S  S595  1  0.50655000  0.31461000  0.86423000  1.0
  S  S596  1  0.31461000  0.31461000  0.86423000  1.0
  S  S597  1  0.31461000  0.31461000  0.50655000  1.0
  S  S598  1  0.86423000  0.50655000  0.31461000  1.0
  S  S599  1  0.50655000  0.86423000  0.31461000  1.0
  Zr  Zr600  1  0.50000000  0.06974000  0.50000000  1.0
  Zr  Zr601  1  0.93026000  0.50000000  0.06974000  1.0
  Zr  Zr602  1  0.50000000  0.93026000  0.50000000  1.0
  Zr  Zr603  1  0.06974000  0.50000000  0.93026000  1.0
  Zr  Zr604  1  0.06974000  0.50000000  0.50000000  1.0
  Zr  Zr605  1  0.50000000  0.06974000  0.93026000  1.0
  Zr  Zr606  1  0.93026000  0.50000000  0.50000000  1.0
  Zr  Zr607  1  0.50000000  0.93026000  0.06974000  1.0
  Zr  Zr608  1  0.50000000  0.50000000  0.06974000  1.0
  Zr  Zr609  1  0.06974000  0.93026000  0.50000000  1.0
  Zr  Zr610  1  0.50000000  0.50000000  0.93026000  1.0
  Zr  Zr611  1  0.93026000  0.06974000  0.50000000  1.0
  Zr  Zr612  1  0.58534000  0.96460000  0.48546000  1.0
  Zr  Zr613  1  0.96460000  0.48546000  0.96460000  1.0
  Zr  Zr614  1  0.48546000  0.96460000  0.58534000  1.0
  Zr  Zr615  1  0.96460000  0.58534000  0.96460000  1.0
  Zr  Zr616  1  0.96460000  0.48546000  0.58534000  1.0
  Zr  Zr617  1  0.48546000  0.96460000  0.96460000  1.0
  Zr  Zr618  1  0.96460000  0.58534000  0.48546000  1.0
  Zr  Zr619  1  0.58534000  0.96460000  0.96460000  1.0
  Zr  Zr620  1  0.48546000  0.58534000  0.96460000  1.0
  Zr  Zr621  1  0.96460000  0.96460000  0.48546000  1.0
  Zr  Zr622  1  0.58534000  0.48546000  0.96460000  1.0
  Zr  Zr623  1  0.96460000  0.96460000  0.58534000  1.0
  Zr  Zr624  1  0.03540000  0.03540000  0.51454000  1.0
  Zr  Zr625  1  0.41466000  0.51454000  0.03540000  1.0
  Zr  Zr626  1  0.03540000  0.03540000  0.41466000  1.0
  Zr  Zr627  1  0.51454000  0.41466000  0.03540000  1.0
  Zr  Zr628  1  0.03540000  0.51454000  0.41466000  1.0
  Zr  Zr629  1  0.41466000  0.03540000  0.03540000  1.0
  Zr  Zr630  1  0.03540000  0.41466000  0.51454000  1.0
  Zr  Zr631  1  0.51454000  0.03540000  0.03540000  1.0
  Zr  Zr632  1  0.03540000  0.41466000  0.03540000  1.0
  Zr  Zr633  1  0.41466000  0.03540000  0.51454000  1.0
  Zr  Zr634  1  0.03540000  0.51454000  0.03540000  1.0
  Zr  Zr635  1  0.51454000  0.03540000  0.41466000  1.0
