# generated using pymatgen
data_Zr2NiP4C44(N2O7)2
_symmetry_space_group_name_H-M   'P 1'
_cell_length_a   7.65810000
_cell_length_b   31.89323368
_cell_length_c   31.89323368
_cell_angle_alpha   89.17410918
_cell_angle_beta   83.10452808
_cell_angle_gamma   83.10452808
_symmetry_Int_Tables_number   1
_chemical_formula_structural   Zr2NiP4C44(N2O7)2
_chemical_formula_sum   'Zr8 Ni4 P16 C176 N16 O56'
_cell_volume   7677.37337675
_cell_formula_units_Z   4
loop_
 _symmetry_equiv_pos_site_id
 _symmetry_equiv_pos_as_xyz
  1  'x, y, z'
loop_
 _atom_site_type_symbol
 _atom_site_label
 _atom_site_symmetry_multiplicity
 _atom_site_fract_x
 _atom_site_fract_y
 _atom_site_fract_z
 _atom_site_occupancy
  C  C0  1  0.69780400  0.62928500  0.58197700  1
  C  C1  1  0.82810700  0.65402400  0.58175000  1
  C  C2  1  0.81260700  0.68732000  0.61012400  1
  C  C3  1  0.66655300  0.69634700  0.63883300  1
  C  C4  1  0.53283700  0.67295700  0.63800500  1
  C  C5  1  0.54874100  0.63940300  0.60963300  1
  C  C6  1  0.69711000  0.59006000  0.55830000  1
  C  C7  1  0.73850100  0.58519600  0.37597000  1
  C  C8  1  0.62345400  0.57266200  0.34883200  1
  C  C9  1  0.60304600  0.59359800  0.31096600  1
  C  C10  1  0.69995000  0.62699900  0.29925900  1
  C  C11  1  0.81697700  0.63964900  0.32573700  1
  C  C12  1  0.83803100  0.61842500  0.36383300  1
  C  C13  1  0.77749000  0.55729000  0.41047000  1
  C  C14  1  0.74084000  0.57786000  0.44904000  1
  C  C15  1  0.69986000  0.62116000  0.45208000  1
  C  C16  1  0.70686000  0.59241000  0.51467000  1
  C  C17  1  0.67960000  0.63055000  0.49407000  1
  C  C18  1  0.84742000  0.44869000  0.42207000  1
  C  C19  1  0.88733000  0.45174000  0.37888000  1
  C  C20  1  0.81854000  0.51400000  0.40824000  1
  C  C21  1  0.86877000  0.49349000  0.37003000  1
  C  C22  1  0.90906600  0.37071500  0.41802300  1
  C  C23  1  0.06388100  0.34597600  0.41825000  1
  C  C24  1  0.11005100  0.31268000  0.38987600  1
  C  C25  1  0.00173300  0.30365300  0.36116700  1
  C  C26  1  0.84379900  0.32704300  0.36199500  1
  C  C27  1  0.79777700  0.36059700  0.39036700  1
  C  C28  1  0.84547000  0.40994000  0.44170000  1
  C  C29  1  0.69966700  0.41480400  0.62403000  1
  C  C30  1  0.54494800  0.42733800  0.65116800  1
  C  C31  1  0.50761000  0.40640200  0.68903400  1
  C  C32  1  0.62620800  0.37300100  0.70074100  1
  C  C33  1  0.78236300  0.36035100  0.67426300  1
  C  C34  1  0.82028900  0.38157500  0.63616700  1
  C  C35  1  0.74525000  0.44271000  0.58953000  1
  C  C36  1  0.76774000  0.42214000  0.55096000  1
  C  C37  1  0.77310000  0.37884000  0.54792000  1
  C  C38  1  0.81394000  0.40759000  0.48533000  1
  C  C39  1  0.80422000  0.36945000  0.50593000  1
  C  C40  1  0.71818000  0.55131000  0.57793000  1
  C  C41  1  0.71795000  0.54826000  0.62112000  1
  C  C42  1  0.74078000  0.48600000  0.59176000  1
  C  C43  1  0.73229000  0.50651000  0.62997000  1
  C  C44  1  0.07708900  0.08197700  0.87071500  1
  C  C45  1  0.23213100  0.08175000  0.84597600  1
  C  C46  1  0.24992700  0.11012400  0.81268000  1
  C  C47  1  0.11290000  0.13883300  0.80365300  1
  C  C48  1  0.95579400  0.13800500  0.82704300  1
  C  C49  1  0.93814400  0.10963300  0.86059700  1
  C  C50  1  0.03717000  0.05830000  0.90994000  1
  C  C51  1  0.07369700  0.87597000  0.91480400  1
  C  C52  1  0.94611600  0.84883200  0.92733800  1
  C  C53  1  0.94664400  0.81096600  0.90640200  1
  C  C54  1  0.07694900  0.79925900  0.87300100  1
  C  C55  1  0.20662600  0.82573700  0.86035100  1
  C  C56  1  0.20645600  0.86383300  0.88157500  1
  C  C57  1  0.08478000  0.91047000  0.94271000  1
  C  C58  1  0.06870000  0.94904000  0.92214000  1
  C  C59  1  0.07102000  0.95208000  0.87884000  1
  C  C60  1  0.04927000  0.01467000  0.90759000  1
  C  C61  1  0.06015000  0.99407000  0.86945000  1
  C  C62  1  0.04611000  0.92207000  0.05131000  1
  C  C63  1  0.08907000  0.87888000  0.04826000  1
  C  C64  1  0.08254000  0.90824000  0.98600000  1
  C  C65  1  0.11226000  0.87003000  0.00651000  1
  C  C66  1  0.02978100  0.91802300  0.12928500  1
  C  C67  1  0.15985700  0.91825000  0.15402400  1
  C  C68  1  0.17273100  0.88987600  0.18732000  1
  C  C69  1  0.05538600  0.86116700  0.19634700  1
  C  C70  1  0.92084200  0.86199500  0.17295700  1
  C  C71  1  0.90837400  0.89036700  0.13940300  1
  C  C72  1  0.00541000  0.94170000  0.09006000  1
  C  C73  1  0.86447100  0.12403000  0.08519600  1
  C  C74  1  0.72228600  0.15116800  0.07266200  1
  C  C75  1  0.66401200  0.18903400  0.09359800  1
  C  C76  1  0.74920900  0.20074100  0.12699900  1
  C  C77  1  0.89271400  0.17426300  0.13964900  1
  C  C78  1  0.95186400  0.13616700  0.11842500  1
  C  C79  1  0.93796000  0.08953000  0.05729000  1
  C  C80  1  0.93988000  0.05096000  0.07786000  1
  C  C81  1  0.90194000  0.04792000  0.12116000  1
  C  C82  1  0.97153000  0.98533000  0.09241000  1
  C  C83  1  0.92367000  0.00593000  0.13055000  1
  C  C84  1  0.01949000  0.07793000  0.94869000  1
  C  C85  1  0.01621000  0.12112000  0.95174000  1
  C  C86  1  0.97678000  0.09176000  0.01400000  1
  C  C87  1  0.98880000  0.12997000  0.99349000  1
  C  C88  1  0.40906600  0.41802300  0.37071500  1
  C  C89  1  0.56388100  0.41825000  0.34597600  1
  C  C90  1  0.61005100  0.38987600  0.31268000  1
  C  C91  1  0.50173300  0.36116700  0.30365300  1
  C  C92  1  0.34379900  0.36199500  0.32704300  1
  C  C93  1  0.29777700  0.39036700  0.36059700  1
  C  C94  1  0.34547000  0.44170000  0.40994000  1
  C  C95  1  0.19966700  0.62403000  0.41480400  1
  C  C96  1  0.04494800  0.65116800  0.42733800  1
  C  C97  1  0.00761000  0.68903400  0.40640200  1
  C  C98  1  0.12620800  0.70074100  0.37300100  1
  C  C99  1  0.28236300  0.67426300  0.36035100  1
  C  C100  1  0.32028900  0.63616700  0.38157500  1
  C  C101  1  0.24525000  0.58953000  0.44271000  1
  C  C102  1  0.26774000  0.55096000  0.42214000  1
  C  C103  1  0.27310000  0.54792000  0.37884000  1
  C  C104  1  0.31394000  0.48533000  0.40759000  1
  C  C105  1  0.30422000  0.50593000  0.36945000  1
  C  C106  1  0.21818000  0.57793000  0.55131000  1
  C  C107  1  0.21795000  0.62112000  0.54826000  1
  C  C108  1  0.24078000  0.59176000  0.48600000  1
  C  C109  1  0.23229000  0.62997000  0.50651000  1
  C  C110  1  0.19780400  0.58197700  0.62928500  1
  C  C111  1  0.32810700  0.58175000  0.65402400  1
  C  C112  1  0.31260700  0.61012400  0.68732000  1
  C  C113  1  0.16655300  0.63883300  0.69634700  1
  C  C114  1  0.03283700  0.63800500  0.67295700  1
  C  C115  1  0.04874100  0.60963300  0.63940300  1
  C  C116  1  0.19711000  0.55830000  0.59006000  1
  C  C117  1  0.23850100  0.37597000  0.58519600  1
  C  C118  1  0.12345400  0.34883200  0.57266200  1
  C  C119  1  0.10304600  0.31096600  0.59359800  1
  C  C120  1  0.19995000  0.29925900  0.62699900  1
  C  C121  1  0.31697700  0.32573700  0.63964900  1
  C  C122  1  0.33803100  0.36383300  0.61842500  1
  C  C123  1  0.27749000  0.41047000  0.55729000  1
  C  C124  1  0.24084000  0.44904000  0.57786000  1
  C  C125  1  0.19986000  0.45208000  0.62116000  1
  C  C126  1  0.20686000  0.51467000  0.59241000  1
  C  C127  1  0.17960000  0.49407000  0.63055000  1
  C  C128  1  0.34742000  0.42207000  0.44869000  1
  C  C129  1  0.38733000  0.37888000  0.45174000  1
  C  C130  1  0.31854000  0.40824000  0.51400000  1
  C  C131  1  0.36877000  0.37003000  0.49349000  1
  C  C132  1  0.57708900  0.87071500  0.08197700  1
  C  C133  1  0.73213100  0.84597600  0.08175000  1
  C  C134  1  0.74992700  0.81268000  0.11012400  1
  C  C135  1  0.61290000  0.80365300  0.13883300  1
  C  C136  1  0.45579400  0.82704300  0.13800500  1
  C  C137  1  0.43814400  0.86059700  0.10963300  1
  C  C138  1  0.53717000  0.90994000  0.05830000  1
  C  C139  1  0.57369700  0.91480400  0.87597000  1
  C  C140  1  0.44611600  0.92733800  0.84883200  1
  C  C141  1  0.44664400  0.90640200  0.81096600  1
  C  C142  1  0.57694900  0.87300100  0.79925900  1
  C  C143  1  0.70662600  0.86035100  0.82573700  1
  C  C144  1  0.70645600  0.88157500  0.86383300  1
  C  C145  1  0.58478000  0.94271000  0.91047000  1
  C  C146  1  0.56870000  0.92214000  0.94904000  1
  C  C147  1  0.57102000  0.87884000  0.95208000  1
  C  C148  1  0.54927000  0.90759000  0.01467000  1
  C  C149  1  0.56015000  0.86945000  0.99407000  1
  C  C150  1  0.54611000  0.05131000  0.92207000  1
  C  C151  1  0.58907000  0.04826000  0.87888000  1
  C  C152  1  0.58254000  0.98600000  0.90824000  1
  C  C153  1  0.61226000  0.00651000  0.87003000  1
  C  C154  1  0.52978100  0.12928500  0.91802300  1
  C  C155  1  0.65985700  0.15402400  0.91825000  1
  C  C156  1  0.67273100  0.18732000  0.88987600  1
  C  C157  1  0.55538600  0.19634700  0.86116700  1
  C  C158  1  0.42084200  0.17295700  0.86199500  1
  C  C159  1  0.40837400  0.13940300  0.89036700  1
  C  C160  1  0.50541000  0.09006000  0.94170000  1
  C  C161  1  0.36447100  0.08519600  0.12403000  1
  C  C162  1  0.22228600  0.07266200  0.15116800  1
  C  C163  1  0.16401200  0.09359800  0.18903400  1
  C  C164  1  0.24920900  0.12699900  0.20074100  1
  C  C165  1  0.39271400  0.13964900  0.17426300  1
  C  C166  1  0.45186400  0.11842500  0.13616700  1
  C  C167  1  0.43796000  0.05729000  0.08953000  1
  C  C168  1  0.43988000  0.07786000  0.05096000  1
  C  C169  1  0.40194000  0.12116000  0.04792000  1
  C  C170  1  0.47153000  0.09241000  0.98533000  1
  C  C171  1  0.42367000  0.13055000  0.00593000  1
  C  C172  1  0.51949000  0.94869000  0.07793000  1
  C  C173  1  0.51621000  0.95174000  0.12112000  1
  C  C174  1  0.47678000  0.01400000  0.09176000  1
  C  C175  1  0.48880000  0.99349000  0.12997000  1
  N  N176  1  0.74290000  0.55911000  0.48747000  1
  N  N177  1  0.80887000  0.48698000  0.44124000  1
  N  N178  1  0.78948000  0.44089000  0.51253000  1
  N  N179  1  0.73709000  0.51302000  0.55876000  1
  N  N180  1  0.05201000  0.98747000  0.94089000  1
  N  N181  1  0.04585000  0.94124000  0.01302000  1
  N  N182  1  0.98037000  0.01253000  0.05911000  1
  N  N183  1  0.00011000  0.05876000  0.98698000  1
  N  N184  1  0.28948000  0.51253000  0.44089000  1
  N  N185  1  0.23709000  0.55876000  0.51302000  1
  N  N186  1  0.24290000  0.48747000  0.55911000  1
  N  N187  1  0.30887000  0.44124000  0.48698000  1
  N  N188  1  0.55201000  0.94089000  0.98747000  1
  N  N189  1  0.54585000  0.01302000  0.94124000  1
  N  N190  1  0.48037000  0.05911000  0.01253000  1
  N  N191  1  0.50011000  0.98698000  0.05876000  1
  Ni  Ni192  1  0.76933000  0.50000000  0.50000000  1
  Ni  Ni193  1  0.01933000  0.00000000  0.00000000  1
  Ni  Ni194  1  0.26933000  0.50000000  0.50000000  1
  Ni  Ni195  1  0.51933000  0.00000000  0.00000000  1
  O  O196  1  0.60617000  0.73980000  0.78020000  1
  O  O197  1  0.48167800  0.76921600  0.69938800  1
  O  O198  1  0.82928400  0.72867200  0.70444200  1
  O  O199  1  0.74209400  0.77213600  0.64519400  1
  O  O200  1  0.78356500  0.68847900  0.23565500  1
  O  O201  1  0.43621700  0.68869100  0.27946300  1
  O  O202  1  0.59077600  0.63110200  0.21902600  1
  O  O203  1  0.95028200  0.23078400  0.30061200  1
  O  O204  1  0.26239800  0.27132800  0.29555800  1
  O  O205  1  0.15942400  0.22786400  0.35480600  1
  O  O206  1  0.70769900  0.31152100  0.76434500  1
  O  O207  1  0.40437100  0.31130900  0.72053700  1
  O  O208  1  0.44090400  0.36889800  0.78097400  1
  O  O209  1  0.12617000  0.26020000  0.21980000  1
  O  O210  1  0.10617000  0.78020000  0.73980000  1
  O  O211  1  0.62617000  0.21980000  0.26020000  1
  O  O212  1  0.32928400  0.70444200  0.72867200  1
  O  O213  1  0.76239800  0.29555800  0.27132800  1
  O  O214  1  0.22204400  0.73565500  0.81152100  1
  O  O215  1  0.76922000  0.26434500  0.18847900  1
  O  O216  1  0.96568000  0.18869100  0.22053700  1
  O  O217  1  0.37490800  0.81130900  0.77946300  1
  O  O218  1  0.09597000  0.28020000  0.76020000  1
  O  O219  1  0.00089400  0.19938800  0.73078400  1
  O  O220  1  0.30795600  0.20444200  0.77132800  1
  O  O221  1  0.26423000  0.14519400  0.72786400  1
  O  O222  1  0.87490800  0.77946300  0.81130900  1
  O  O223  1  0.97187800  0.71902600  0.86889800  1
  O  O224  1  0.93106600  0.80061200  0.26921600  1
  O  O225  1  0.28372600  0.79555800  0.22867200  1
  O  O226  1  0.13728800  0.85480600  0.27213600  1
  O  O227  1  0.46568000  0.22053700  0.18869100  1
  O  O228  1  0.55980200  0.28097400  0.13110200  1
  O  O229  1  0.13637000  0.71980000  0.23980000  1
  O  O230  1  0.63637000  0.23980000  0.71980000  1
  O  O231  1  0.59597000  0.76020000  0.28020000  1
  O  O232  1  0.78372600  0.22867200  0.79555800  1
  O  O233  1  0.80795600  0.77132800  0.20444200  1
  O  O234  1  0.90437100  0.72053700  0.31130900  1
  O  O235  1  0.93621700  0.27946300  0.68869100  1
  O  O236  1  0.45028200  0.30061200  0.23078400  1
  O  O237  1  0.65942400  0.35480600  0.22786400  1
  O  O238  1  0.20769900  0.76434500  0.31152100  1
  O  O239  1  0.94090400  0.78097400  0.36889800  1
  O  O240  1  0.98167800  0.69938800  0.76921600  1
  O  O241  1  0.24209400  0.64519400  0.77213600  1
  O  O242  1  0.28356500  0.23565500  0.68847900  1
  O  O243  1  0.09077600  0.21902600  0.63110200  1
  O  O244  1  0.26922000  0.18847900  0.26434500  1
  O  O245  1  0.72204400  0.81152100  0.73565500  1
  O  O246  1  0.50089400  0.73078400  0.19938800  1
  O  O247  1  0.76423000  0.72786400  0.14519400  1
  O  O248  1  0.47187800  0.86889800  0.71902600  1
  O  O249  1  0.43106600  0.26921600  0.80061200  1
  O  O250  1  0.63728800  0.27213600  0.85480600  1
  O  O251  1  0.05980200  0.13110200  0.28097400  1
  P  P252  1  0.66096500  0.73814100  0.67675900  1
  P  P253  1  0.62794600  0.66088500  0.25800100  1
  P  P254  1  0.07586500  0.26185900  0.32324100  1
  P  P255  1  0.54683200  0.33911500  0.74199900  1
  P  P256  1  0.14910600  0.17675900  0.76185900  1
  P  P257  1  0.03883100  0.75800100  0.83911500  1
  P  P258  1  0.08772400  0.82324100  0.23814100  1
  P  P259  1  0.63594700  0.24199900  0.16088500  1
  P  P260  1  0.57586500  0.32324100  0.26185900  1
  P  P261  1  0.04683200  0.74199900  0.33911500  1
  P  P262  1  0.16096500  0.67675900  0.73814100  1
  P  P263  1  0.12794600  0.25800100  0.66088500  1
  P  P264  1  0.64910600  0.76185900  0.17675900  1
  P  P265  1  0.53883100  0.83911500  0.75800100  1
  P  P266  1  0.58772400  0.23814100  0.82324100  1
  P  P267  1  0.13594700  0.16088500  0.24199900  1
  Zr  Zr268  1  0.36079000  0.75464000  0.75744000  1
  Zr  Zr269  1  0.87287000  0.24536000  0.24256000  1
  Zr  Zr270  1  0.36543000  0.74536000  0.25744000  1
  Zr  Zr271  1  0.86823000  0.74256000  0.25464000  1
  Zr  Zr272  1  0.86079000  0.75744000  0.75464000  1
  Zr  Zr273  1  0.37287000  0.24256000  0.24536000  1
  Zr  Zr274  1  0.86543000  0.25744000  0.74536000  1
  Zr  Zr275  1  0.36823000  0.25464000  0.74256000  1
