# generated using pymatgen
data_Zr3H24C44(NO6)2
_symmetry_space_group_name_H-M   'P 1'
_cell_length_a   20.74420000
_cell_length_b   20.74420000
_cell_length_c   36.31687427
_cell_angle_alpha   106.59471797
_cell_angle_beta   106.59471797
_cell_angle_gamma   90.00000000
_symmetry_Int_Tables_number   1
_chemical_formula_structural   Zr3H24C44(NO6)2
_chemical_formula_sum   'Zr12 H96 C176 N8 O48'
_cell_volume   14296.49621465
_cell_formula_units_Z   4
loop_
 _symmetry_equiv_pos_site_id
 _symmetry_equiv_pos_as_xyz
  1  'x, y, z'
loop_
 _atom_site_type_symbol
 _atom_site_label
 _atom_site_symmetry_multiplicity
 _atom_site_fract_x
 _atom_site_fract_y
 _atom_site_fract_z
 _atom_site_occupancy
  C  C0  1  0.03950000  0.45840000  0.01540000  1
  C  C1  1  0.19170000  0.48670000  0.03280000  1
  C  C2  1  0.25745000  0.48775000  0.03030000  1
  C  C3  1  0.31790000  0.47350000  0.06500000  1
  C  C4  1  0.36450000  0.42710000  0.05500000  1
  C  C5  1  0.41800000  0.41480000  0.08560000  1
  C  C6  1  0.42500000  0.44930000  0.12660000  1
  C  C7  1  0.37840000  0.49530000  0.13660000  1
  C  C8  1  0.32490000  0.50800000  0.10600000  1
  C  C9  1  0.47440000  0.43750000  0.15500000  1
  C  C10  1  0.06360000  0.50000000  0.00000000  1
  C  C11  1  0.14040000  0.50000000  0.00000000  1
  C  C12  1  0.05700000  0.03950000  0.51540000  1
  C  C13  1  0.04610000  0.19170000  0.53280000  1
  C  C14  1  0.04255000  0.25745000  0.53030000  1
  C  C15  1  0.09150000  0.31790000  0.56500000  1
  C  C16  1  0.12790000  0.36450000  0.55500000  1
  C  C17  1  0.17080000  0.41800000  0.58560000  1
  C  C18  1  0.17730000  0.42500000  0.62660000  1
  C  C19  1  0.14130000  0.37840000  0.63660000  1
  C  C20  1  0.09800000  0.32490000  0.60600000  1
  C  C21  1  0.21750000  0.47440000  0.65500000  1
  C  C22  1  1.00000000  0.06360000  0.50000000  1
  C  C23  1  0.00000000  0.14040000  0.50000000  1
  C  C24  1  0.97590000  0.05700000  0.01540000  1
  C  C25  1  0.84110000  0.04610000  0.03280000  1
  C  C26  1  0.77285000  0.04255000  0.03030000  1
  C  C27  1  0.74710000  0.09150000  0.06500000  1
  C  C28  1  0.69050000  0.12790000  0.05500000  1
  C  C29  1  0.66760000  0.17080000  0.08560000  1
  C  C30  1  0.70160000  0.17730000  0.12660000  1
  C  C31  1  0.75820000  0.14130000  0.13660000  1
  C  C32  1  0.78110000  0.09800000  0.10600000  1
  C  C33  1  0.68060000  0.21750000  0.15500000  1
  C  C34  1  0.93640000  0.00000000  0.00000000  1
  C  C35  1  0.85960000  1.00000000  1.00000000  1
  C  C36  1  0.45840000  0.97590000  0.51540000  1
  C  C37  1  0.48670000  0.84110000  0.53280000  1
  C  C38  1  0.48775000  0.77285000  0.53030000  1
  C  C39  1  0.47350000  0.74710000  0.56500000  1
  C  C40  1  0.42710000  0.69050000  0.55500000  1
  C  C41  1  0.41480000  0.66760000  0.58560000  1
  C  C42  1  0.44930000  0.70160000  0.62660000  1
  C  C43  1  0.49530000  0.75820000  0.63660000  1
  C  C44  1  0.50800000  0.78110000  0.60600000  1
  C  C45  1  0.43750000  0.68060000  0.65500000  1
  C  C46  1  0.50000000  0.93640000  0.50000000  1
  C  C47  1  0.50000000  0.85960000  0.50000000  1
  C  C48  1  0.02410000  0.54160000  0.98460000  1
  C  C49  1  0.15890000  0.51330000  0.96720000  1
  C  C50  1  0.22715000  0.51225000  0.96970000  1
  C  C51  1  0.25290000  0.52650000  0.93500000  1
  C  C52  1  0.30950000  0.57290000  0.94500000  1
  C  C53  1  0.33240000  0.58520000  0.91440000  1
  C  C54  1  0.29840000  0.55070000  0.87340000  1
  C  C55  1  0.24180000  0.50470000  0.86340000  1
  C  C56  1  0.21890000  0.49200000  0.89400000  1
  C  C57  1  0.31940000  0.56250000  0.84500000  1
  C  C58  1  0.94300000  0.02410000  0.48460000  1
  C  C59  1  0.95390000  0.15890000  0.46720000  1
  C  C60  1  0.95745000  0.22715000  0.46970000  1
  C  C61  1  0.90850000  0.25290000  0.43500000  1
  C  C62  1  0.87210000  0.30950000  0.44500000  1
  C  C63  1  0.82920000  0.33240000  0.41440000  1
  C  C64  1  0.82270000  0.29840000  0.37340000  1
  C  C65  1  0.85870000  0.24180000  0.36340000  1
  C  C66  1  0.90200000  0.21890000  0.39400000  1
  C  C67  1  0.78250000  0.31940000  0.34500000  1
  C  C68  1  0.96050000  0.94300000  0.98460000  1
  C  C69  1  0.80830000  0.95390000  0.96720000  1
  C  C70  1  0.74255000  0.95745000  0.96970000  1
  C  C71  1  0.68210000  0.90850000  0.93500000  1
  C  C72  1  0.63550000  0.87210000  0.94500000  1
  C  C73  1  0.58200000  0.82920000  0.91440000  1
  C  C74  1  0.57500000  0.82270000  0.87340000  1
  C  C75  1  0.62160000  0.85870000  0.86340000  1
  C  C76  1  0.67510000  0.90200000  0.89400000  1
  C  C77  1  0.52560000  0.78250000  0.84500000  1
  C  C78  1  0.54160000  0.96050000  0.48460000  1
  C  C79  1  0.51330000  0.80830000  0.46720000  1
  C  C80  1  0.51225000  0.74255000  0.46970000  1
  C  C81  1  0.52650000  0.68210000  0.43500000  1
  C  C82  1  0.57290000  0.63550000  0.44500000  1
  C  C83  1  0.58520000  0.58200000  0.41440000  1
  C  C84  1  0.55070000  0.57500000  0.37340000  1
  C  C85  1  0.50470000  0.62160000  0.36340000  1
  C  C86  1  0.49200000  0.67510000  0.39400000  1
  C  C87  1  0.56250000  0.52560000  0.34500000  1
  C  C88  1  0.96050000  0.54160000  0.98460000  1
  C  C89  1  0.80830000  0.51330000  0.96720000  1
  C  C90  1  0.74255000  0.51225000  0.96970000  1
  C  C91  1  0.68210000  0.52650000  0.93500000  1
  C  C92  1  0.63550000  0.57290000  0.94500000  1
  C  C93  1  0.58200000  0.58520000  0.91440000  1
  C  C94  1  0.57500000  0.55070000  0.87340000  1
  C  C95  1  0.62160000  0.50470000  0.86340000  1
  C  C96  1  0.67510000  0.49200000  0.89400000  1
  C  C97  1  0.52560000  0.56250000  0.84500000  1
  C  C98  1  0.93640000  0.50000000  0.00000000  1
  C  C99  1  0.85960000  0.50000000  1.00000000  1
  C  C100  1  0.94300000  0.96050000  0.48460000  1
  C  C101  1  0.95390000  0.80830000  0.46720000  1
  C  C102  1  0.95745000  0.74255000  0.46970000  1
  C  C103  1  0.90850000  0.68210000  0.43500000  1
  C  C104  1  0.87210000  0.63550000  0.44500000  1
  C  C105  1  0.82920000  0.58200000  0.41440000  1
  C  C106  1  0.82270000  0.57500000  0.37340000  1
  C  C107  1  0.85870000  0.62160000  0.36340000  1
  C  C108  1  0.90200000  0.67510000  0.39400000  1
  C  C109  1  0.78250000  0.52560000  0.34500000  1
  C  C110  1  1.00000000  0.93640000  0.50000000  1
  C  C111  1  1.00000000  0.85960000  0.50000000  1
  C  C112  1  0.02410000  0.94300000  0.98460000  1
  C  C113  1  0.15890000  0.95390000  0.96720000  1
  C  C114  1  0.22715000  0.95745000  0.96970000  1
  C  C115  1  0.25290000  0.90850000  0.93500000  1
  C  C116  1  0.30950000  0.87210000  0.94500000  1
  C  C117  1  0.33240000  0.82920000  0.91440000  1
  C  C118  1  0.29840000  0.82270000  0.87340000  1
  C  C119  1  0.24180000  0.85870000  0.86340000  1
  C  C120  1  0.21890000  0.90200000  0.89400000  1
  C  C121  1  0.31940000  0.78250000  0.84500000  1
  C  C122  1  0.06360000  0.00000000  0.00000000  1
  C  C123  1  0.14040000  0.00000000  0.00000000  1
  C  C124  1  0.54160000  0.02410000  0.48460000  1
  C  C125  1  0.51330000  0.15890000  0.46720000  1
  C  C126  1  0.51225000  0.22715000  0.46970000  1
  C  C127  1  0.52650000  0.25290000  0.43500000  1
  C  C128  1  0.57290000  0.30950000  0.44500000  1
  C  C129  1  0.58520000  0.33240000  0.41440000  1
  C  C130  1  0.55070000  0.29840000  0.37340000  1
  C  C131  1  0.50470000  0.24180000  0.36340000  1
  C  C132  1  0.49200000  0.21890000  0.39400000  1
  C  C133  1  0.56250000  0.31940000  0.34500000  1
  C  C134  1  0.50000000  0.06360000  0.50000000  1
  C  C135  1  0.50000000  0.14040000  0.50000000  1
  C  C136  1  0.97590000  0.45840000  0.01540000  1
  C  C137  1  0.84110000  0.48670000  0.03280000  1
  C  C138  1  0.77285000  0.48775000  0.03030000  1
  C  C139  1  0.74710000  0.47350000  0.06500000  1
  C  C140  1  0.69050000  0.42710000  0.05500000  1
  C  C141  1  0.66760000  0.41480000  0.08560000  1
  C  C142  1  0.70160000  0.44930000  0.12660000  1
  C  C143  1  0.75820000  0.49530000  0.13660000  1
  C  C144  1  0.78110000  0.50800000  0.10600000  1
  C  C145  1  0.68060000  0.43750000  0.15500000  1
  C  C146  1  0.05700000  0.97590000  0.51540000  1
  C  C147  1  0.04610000  0.84110000  0.53280000  1
  C  C148  1  0.04255000  0.77285000  0.53030000  1
  C  C149  1  0.09150000  0.74710000  0.56500000  1
  C  C150  1  0.12790000  0.69050000  0.55500000  1
  C  C151  1  0.17080000  0.66760000  0.58560000  1
  C  C152  1  0.17730000  0.70160000  0.62660000  1
  C  C153  1  0.14130000  0.75820000  0.63660000  1
  C  C154  1  0.09800000  0.78110000  0.60600000  1
  C  C155  1  0.21750000  0.68060000  0.65500000  1
  C  C156  1  0.03950000  0.05700000  0.01540000  1
  C  C157  1  0.19170000  0.04610000  0.03280000  1
  C  C158  1  0.25745000  0.04255000  0.03030000  1
  C  C159  1  0.31790000  0.09150000  0.06500000  1
  C  C160  1  0.36450000  0.12790000  0.05500000  1
  C  C161  1  0.41800000  0.17080000  0.08560000  1
  C  C162  1  0.42500000  0.17730000  0.12660000  1
  C  C163  1  0.37840000  0.14130000  0.13660000  1
  C  C164  1  0.32490000  0.09800000  0.10600000  1
  C  C165  1  0.47440000  0.21750000  0.15500000  1
  C  C166  1  0.45840000  0.03950000  0.51540000  1
  C  C167  1  0.48670000  0.19170000  0.53280000  1
  C  C168  1  0.48775000  0.25745000  0.53030000  1
  C  C169  1  0.47350000  0.31790000  0.56500000  1
  C  C170  1  0.42710000  0.36450000  0.55500000  1
  C  C171  1  0.41480000  0.41800000  0.58560000  1
  C  C172  1  0.44930000  0.42500000  0.62660000  1
  C  C173  1  0.49530000  0.37840000  0.63660000  1
  C  C174  1  0.50800000  0.32490000  0.60600000  1
  C  C175  1  0.43750000  0.47440000  0.65500000  1
  H  H176  1  0.06740000  0.42890000  0.02620000  1
  H  H177  1  0.17970000  0.47810000  0.05400000  1
  H  H178  1  0.35990000  0.40450000  0.02800000  1
  H  H179  1  0.44880000  0.38350000  0.07900000  1
  H  H180  1  0.38300000  0.51780000  0.16360000  1
  H  H181  1  0.29410000  0.53830000  0.11260000  1
  H  H182  1  0.09730000  0.06740000  0.52620000  1
  H  H183  1  0.07590000  0.17970000  0.55400000  1
  H  H184  1  0.12350000  0.35990000  0.52800000  1
  H  H185  1  0.19550000  0.44880000  0.57900000  1
  H  H186  1  0.14580000  0.38300000  0.66360000  1
  H  H187  1  0.07430000  0.29410000  0.61260000  1
  H  H188  1  0.95880000  0.09730000  0.02620000  1
  H  H189  1  0.87430000  0.07590000  0.05400000  1
  H  H190  1  0.66810000  0.12350000  0.02800000  1
  H  H191  1  0.63020000  0.19550000  0.07900000  1
  H  H192  1  0.78060000  0.14580000  0.16360000  1
  H  H193  1  0.81850000  0.07430000  0.11260000  1
  H  H194  1  0.42890000  0.95880000  0.52620000  1
  H  H195  1  0.47810000  0.87430000  0.55400000  1
  H  H196  1  0.40450000  0.66810000  0.52800000  1
  H  H197  1  0.38350000  0.63020000  0.57900000  1
  H  H198  1  0.51780000  0.78060000  0.66360000  1
  H  H199  1  0.53830000  0.81850000  0.61260000  1
  H  H200  1  0.04120000  0.57110000  0.97380000  1
  H  H201  1  0.12570000  0.52190000  0.94600000  1
  H  H202  1  0.33190000  0.59550000  0.97200000  1
  H  H203  1  0.36980000  0.61650000  0.92100000  1
  H  H204  1  0.21940000  0.48220000  0.83640000  1
  H  H205  1  0.18150000  0.46170000  0.88740000  1
  H  H206  1  0.90270000  0.04120000  0.47380000  1
  H  H207  1  0.92410000  0.12570000  0.44600000  1
  H  H208  1  0.87650000  0.33190000  0.47200000  1
  H  H209  1  0.80450000  0.36980000  0.42100000  1
  H  H210  1  0.85420000  0.21940000  0.33640000  1
  H  H211  1  0.92570000  0.18150000  0.38740000  1
  H  H212  1  0.93260000  0.90270000  0.97380000  1
  H  H213  1  0.82030000  0.92410000  0.94600000  1
  H  H214  1  0.64010000  0.87650000  0.97200000  1
  H  H215  1  0.55120000  0.80450000  0.92100000  1
  H  H216  1  0.61700000  0.85420000  0.83640000  1
  H  H217  1  0.70590000  0.92570000  0.88740000  1
  H  H218  1  0.57110000  0.93260000  0.47380000  1
  H  H219  1  0.52190000  0.82030000  0.44600000  1
  H  H220  1  0.59550000  0.64010000  0.47200000  1
  H  H221  1  0.61650000  0.55120000  0.42100000  1
  H  H222  1  0.48220000  0.61700000  0.33640000  1
  H  H223  1  0.46170000  0.70590000  0.38740000  1
  H  H224  1  0.93260000  0.57110000  0.97380000  1
  H  H225  1  0.82030000  0.52190000  0.94600000  1
  H  H226  1  0.64010000  0.59550000  0.97200000  1
  H  H227  1  0.55120000  0.61650000  0.92100000  1
  H  H228  1  0.61700000  0.48220000  0.83640000  1
  H  H229  1  0.70590000  0.46170000  0.88740000  1
  H  H230  1  0.90270000  0.93260000  0.47380000  1
  H  H231  1  0.92410000  0.82030000  0.44600000  1
  H  H232  1  0.87650000  0.64010000  0.47200000  1
  H  H233  1  0.80450000  0.55120000  0.42100000  1
  H  H234  1  0.85420000  0.61700000  0.33640000  1
  H  H235  1  0.92570000  0.70590000  0.38740000  1
  H  H236  1  0.04120000  0.90270000  0.97380000  1
  H  H237  1  0.12570000  0.92410000  0.94600000  1
  H  H238  1  0.33190000  0.87650000  0.97200000  1
  H  H239  1  0.36980000  0.80450000  0.92100000  1
  H  H240  1  0.21940000  0.85420000  0.83640000  1
  H  H241  1  0.18150000  0.92570000  0.88740000  1
  H  H242  1  0.57110000  0.04120000  0.47380000  1
  H  H243  1  0.52190000  0.12570000  0.44600000  1
  H  H244  1  0.59550000  0.33190000  0.47200000  1
  H  H245  1  0.61650000  0.36980000  0.42100000  1
  H  H246  1  0.48220000  0.21940000  0.33640000  1
  H  H247  1  0.46170000  0.18150000  0.38740000  1
  H  H248  1  0.95880000  0.42890000  0.02620000  1
  H  H249  1  0.87430000  0.47810000  0.05400000  1
  H  H250  1  0.66810000  0.40450000  0.02800000  1
  H  H251  1  0.63020000  0.38350000  0.07900000  1
  H  H252  1  0.78060000  0.51780000  0.16360000  1
  H  H253  1  0.81850000  0.53830000  0.11260000  1
  H  H254  1  0.09730000  0.95880000  0.52620000  1
  H  H255  1  0.07590000  0.87430000  0.55400000  1
  H  H256  1  0.12350000  0.66810000  0.52800000  1
  H  H257  1  0.19550000  0.63020000  0.57900000  1
  H  H258  1  0.14580000  0.78060000  0.66360000  1
  H  H259  1  0.07430000  0.81850000  0.61260000  1
  H  H260  1  0.06740000  0.09730000  0.02620000  1
  H  H261  1  0.17970000  0.07590000  0.05400000  1
  H  H262  1  0.35990000  0.12350000  0.02800000  1
  H  H263  1  0.44880000  0.19550000  0.07900000  1
  H  H264  1  0.38300000  0.14580000  0.16360000  1
  H  H265  1  0.29410000  0.07430000  0.11260000  1
  H  H266  1  0.42890000  0.06740000  0.52620000  1
  H  H267  1  0.47810000  0.17970000  0.55400000  1
  H  H268  1  0.40450000  0.35990000  0.52800000  1
  H  H269  1  0.38350000  0.44880000  0.57900000  1
  H  H270  1  0.51780000  0.38300000  0.66360000  1
  H  H271  1  0.53830000  0.29410000  0.61260000  1
  N  N272  1  0.27510000  0.50000000  0.00000000  1
  N  N273  1  0.00000000  0.27510000  0.50000000  1
  N  N274  1  0.72490000  0.00000000  0.00000000  1
  N  N275  1  0.50000000  0.72490000  0.50000000  1
  N  N276  1  0.72490000  0.50000000  0.00000000  1
  N  N277  1  0.00000000  0.72490000  0.50000000  1
  N  N278  1  0.27510000  0.00000000  0.00000000  1
  N  N279  1  0.50000000  0.27510000  0.50000000  1
  O  O280  1  0.51850000  0.38950000  0.14500000  1
  O  O281  1  0.48300000  0.47360000  0.19520000  1
  O  O282  1  0.51370000  0.35360000  0.20720000  1
  O  O283  1  0.60670000  0.44840000  0.21340000  1
  O  O284  1  0.25550000  0.51850000  0.64500000  1
  O  O285  1  0.22160000  0.48300000  0.69520000  1
  O  O286  1  0.35360000  0.51370000  0.70720000  1
  O  O287  1  0.26500000  0.60670000  0.71340000  1
  O  O288  1  0.62650000  0.25550000  0.14500000  1
  O  O289  1  0.71220000  0.22160000  0.19520000  1
  O  O290  1  0.69350000  0.35360000  0.20720000  1
  O  O291  1  0.60670000  0.26500000  0.21340000  1
  O  O292  1  0.38950000  0.62650000  0.64500000  1
  O  O293  1  0.47360000  0.71220000  0.69520000  1
  O  O294  1  0.35360000  0.69350000  0.70720000  1
  O  O295  1  0.44840000  0.60670000  0.71340000  1
  O  O296  1  0.37350000  0.61050000  0.85500000  1
  O  O297  1  0.28780000  0.52640000  0.80480000  1
  O  O298  1  0.30650000  0.64640000  0.79280000  1
  O  O299  1  0.39330000  0.55160000  0.78660000  1
  O  O300  1  0.74450000  0.37350000  0.35500000  1
  O  O301  1  0.77840000  0.28780000  0.30480000  1
  O  O302  1  0.64640000  0.30650000  0.29280000  1
  O  O303  1  0.73500000  0.39330000  0.28660000  1
  O  O304  1  0.48150000  0.74450000  0.85500000  1
  O  O305  1  0.51700000  0.77840000  0.80480000  1
  O  O306  1  0.48630000  0.64640000  0.79280000  1
  O  O307  1  0.39330000  0.73500000  0.78660000  1
  O  O308  1  0.61050000  0.48150000  0.35500000  1
  O  O309  1  0.52640000  0.51700000  0.30480000  1
  O  O310  1  0.64640000  0.48630000  0.29280000  1
  O  O311  1  0.55160000  0.39330000  0.28660000  1
  O  O312  1  0.48150000  0.61050000  0.85500000  1
  O  O313  1  0.51700000  0.52640000  0.80480000  1
  O  O314  1  0.74450000  0.48150000  0.35500000  1
  O  O315  1  0.77840000  0.51700000  0.30480000  1
  O  O316  1  0.37350000  0.74450000  0.85500000  1
  O  O317  1  0.28780000  0.77840000  0.80480000  1
  O  O318  1  0.61050000  0.37350000  0.35500000  1
  O  O319  1  0.52640000  0.28780000  0.30480000  1
  O  O320  1  0.62650000  0.38950000  0.14500000  1
  O  O321  1  0.71220000  0.47360000  0.19520000  1
  O  O322  1  0.25550000  0.62650000  0.64500000  1
  O  O323  1  0.22160000  0.71220000  0.69520000  1
  O  O324  1  0.51850000  0.25550000  0.14500000  1
  O  O325  1  0.48300000  0.22160000  0.19520000  1
  O  O326  1  0.38950000  0.51850000  0.64500000  1
  O  O327  1  0.47360000  0.48300000  0.69520000  1
  Zr  Zr328  1  0.58925000  0.33925000  0.17850000  1
  Zr  Zr329  1  0.54108000  0.45892000  0.25000000  1
  Zr  Zr330  1  0.33925000  0.58925000  0.67850000  1
  Zr  Zr331  1  0.29108000  0.54108000  0.75000000  1
  Zr  Zr332  1  0.70892000  0.29108000  0.25000000  1
  Zr  Zr333  1  0.45892000  0.70892000  0.75000000  1
  Zr  Zr334  1  0.41075000  0.66075000  0.82150000  1
  Zr  Zr335  1  0.66075000  0.41075000  0.32150000  1
  Zr  Zr336  1  0.45892000  0.54108000  0.75000000  1
  Zr  Zr337  1  0.70892000  0.45892000  0.25000000  1
  Zr  Zr338  1  0.29108000  0.70892000  0.75000000  1
  Zr  Zr339  1  0.54108000  0.29108000  0.25000000  1
