# generated using pymatgen
data_Zr3H28C44(NO8)2
_symmetry_space_group_name_H-M   'P 1'
_cell_length_a   20.68390000
_cell_length_b   20.68390000
_cell_length_c   36.42991108
_cell_angle_alpha   106.49228451
_cell_angle_beta   106.49228451
_cell_angle_gamma   90.00000000
_symmetry_Int_Tables_number   1
_chemical_formula_structural   Zr3H28C44(NO8)2
_chemical_formula_sum   'Zr12 H112 C176 N8 O64'
_cell_volume   14274.35978263
_cell_formula_units_Z   4
loop_
 _symmetry_equiv_pos_site_id
 _symmetry_equiv_pos_as_xyz
  1  'x, y, z'
loop_
 _atom_site_type_symbol
 _atom_site_label
 _atom_site_symmetry_multiplicity
 _atom_site_fract_x
 _atom_site_fract_y
 _atom_site_fract_z
 _atom_site_occupancy
  C  C0  1  0.04060000  0.45640000  0.01540000  1
  C  C1  1  0.19380000  0.48470000  0.03220000  1
  C  C2  1  0.25970000  0.48580000  0.02960000  1
  C  C3  1  0.31980000  0.46980000  0.06360000  1
  C  C4  1  0.35960000  0.41350000  0.05300000  1
  C  C5  1  0.41420000  0.39890000  0.08380000  1
  C  C6  1  0.42900000  0.44060000  0.12520000  1
  C  C7  1  0.38920000  0.49680000  0.13560000  1
  C  C8  1  0.33460000  0.51140000  0.10480000  1
  C  C9  1  0.47800000  0.42740000  0.15280000  1
  C  C10  1  0.97480000  0.05900000  0.01540000  1
  C  C11  1  0.83840000  0.04750000  0.03220000  1
  C  C12  1  0.76990000  0.04380000  0.02960000  1
  C  C13  1  0.74380000  0.09380000  0.06360000  1
  C  C14  1  0.69340000  0.13950000  0.05300000  1
  C  C15  1  0.66960000  0.18490000  0.08380000  1
  C  C16  1  0.69620000  0.18460000  0.12520000  1
  C  C17  1  0.74640000  0.13880000  0.13560000  1
  C  C18  1  0.77020000  0.09340000  0.10480000  1
  C  C19  1  0.67480000  0.22540000  0.15280000  1
  C  C20  1  0.05900000  0.04060000  0.51540000  1
  C  C21  1  0.04750000  0.19380000  0.53220000  1
  C  C22  1  0.04380000  0.25970000  0.52960000  1
  C  C23  1  0.09380000  0.31980000  0.56360000  1
  C  C24  1  0.13950000  0.35960000  0.55300000  1
  C  C25  1  0.18490000  0.41420000  0.58380000  1
  C  C26  1  0.18460000  0.42900000  0.62520000  1
  C  C27  1  0.13880000  0.38920000  0.63560000  1
  C  C28  1  0.09340000  0.33460000  0.60480000  1
  C  C29  1  0.22540000  0.47800000  0.65280000  1
  C  C30  1  0.45640000  0.97480000  0.51540000  1
  C  C31  1  0.48470000  0.83840000  0.53220000  1
  C  C32  1  0.48580000  0.76990000  0.52960000  1
  C  C33  1  0.46980000  0.74380000  0.56360000  1
  C  C34  1  0.41350000  0.69340000  0.55300000  1
  C  C35  1  0.39890000  0.66960000  0.58380000  1
  C  C36  1  0.44060000  0.69620000  0.62520000  1
  C  C37  1  0.49680000  0.74640000  0.63560000  1
  C  C38  1  0.51140000  0.77020000  0.60480000  1
  C  C39  1  0.42740000  0.67480000  0.65280000  1
  C  C40  1  0.95940000  0.94100000  0.98460000  1
  C  C41  1  0.80620000  0.95250000  0.96780000  1
  C  C42  1  0.74030000  0.95620000  0.97040000  1
  C  C43  1  0.68020000  0.90620000  0.93640000  1
  C  C44  1  0.64040000  0.86050000  0.94700000  1
  C  C45  1  0.58580000  0.81510000  0.91620000  1
  C  C46  1  0.57100000  0.81540000  0.87480000  1
  C  C47  1  0.61080000  0.86120000  0.86440000  1
  C  C48  1  0.66540000  0.90660000  0.89520000  1
  C  C49  1  0.52200000  0.77460000  0.84720000  1
  C  C50  1  0.02520000  0.54360000  0.98460000  1
  C  C51  1  0.16160000  0.51530000  0.96780000  1
  C  C52  1  0.23010000  0.51420000  0.97040000  1
  C  C53  1  0.25620000  0.53020000  0.93640000  1
  C  C54  1  0.30660000  0.58650000  0.94700000  1
  C  C55  1  0.33040000  0.60110000  0.91620000  1
  C  C56  1  0.30380000  0.55940000  0.87480000  1
  C  C57  1  0.25360000  0.50320000  0.86440000  1
  C  C58  1  0.22980000  0.48860000  0.89520000  1
  C  C59  1  0.32520000  0.57260000  0.84720000  1
  C  C60  1  0.94100000  0.02520000  0.48460000  1
  C  C61  1  0.95250000  0.16160000  0.46780000  1
  C  C62  1  0.95620000  0.23010000  0.47040000  1
  C  C63  1  0.90620000  0.25620000  0.43640000  1
  C  C64  1  0.86050000  0.30660000  0.44700000  1
  C  C65  1  0.81510000  0.33040000  0.41620000  1
  C  C66  1  0.81540000  0.30380000  0.37480000  1
  C  C67  1  0.86120000  0.25360000  0.36440000  1
  C  C68  1  0.90660000  0.22980000  0.39520000  1
  C  C69  1  0.77460000  0.32520000  0.34720000  1
  C  C70  1  0.54360000  0.95940000  0.48460000  1
  C  C71  1  0.51530000  0.80620000  0.46780000  1
  C  C72  1  0.51420000  0.74030000  0.47040000  1
  C  C73  1  0.53020000  0.68020000  0.43640000  1
  C  C74  1  0.58650000  0.64040000  0.44700000  1
  C  C75  1  0.60110000  0.58580000  0.41620000  1
  C  C76  1  0.55940000  0.57100000  0.37480000  1
  C  C77  1  0.50320000  0.61080000  0.36440000  1
  C  C78  1  0.48860000  0.66540000  0.39520000  1
  C  C79  1  0.57260000  0.52200000  0.34720000  1
  C  C80  1  0.95940000  0.54360000  0.98460000  1
  C  C81  1  0.80620000  0.51530000  0.96780000  1
  C  C82  1  0.74030000  0.51420000  0.97040000  1
  C  C83  1  0.68020000  0.53020000  0.93640000  1
  C  C84  1  0.64040000  0.58650000  0.94700000  1
  C  C85  1  0.58580000  0.60110000  0.91620000  1
  C  C86  1  0.57100000  0.55940000  0.87480000  1
  C  C87  1  0.61080000  0.50320000  0.86440000  1
  C  C88  1  0.66540000  0.48860000  0.89520000  1
  C  C89  1  0.52200000  0.57260000  0.84720000  1
  C  C90  1  0.02520000  0.94100000  0.98460000  1
  C  C91  1  0.16160000  0.95250000  0.96780000  1
  C  C92  1  0.23010000  0.95620000  0.97040000  1
  C  C93  1  0.25620000  0.90620000  0.93640000  1
  C  C94  1  0.30660000  0.86050000  0.94700000  1
  C  C95  1  0.33040000  0.81510000  0.91620000  1
  C  C96  1  0.30380000  0.81540000  0.87480000  1
  C  C97  1  0.25360000  0.86120000  0.86440000  1
  C  C98  1  0.22980000  0.90660000  0.89520000  1
  C  C99  1  0.32520000  0.77460000  0.84720000  1
  C  C100  1  0.94100000  0.95940000  0.48460000  1
  C  C101  1  0.95250000  0.80620000  0.46780000  1
  C  C102  1  0.95620000  0.74030000  0.47040000  1
  C  C103  1  0.90620000  0.68020000  0.43640000  1
  C  C104  1  0.86050000  0.64040000  0.44700000  1
  C  C105  1  0.81510000  0.58580000  0.41620000  1
  C  C106  1  0.81540000  0.57100000  0.37480000  1
  C  C107  1  0.86120000  0.61080000  0.36440000  1
  C  C108  1  0.90660000  0.66540000  0.39520000  1
  C  C109  1  0.77460000  0.52200000  0.34720000  1
  C  C110  1  0.54360000  0.02520000  0.48460000  1
  C  C111  1  0.51530000  0.16160000  0.46780000  1
  C  C112  1  0.51420000  0.23010000  0.47040000  1
  C  C113  1  0.53020000  0.25620000  0.43640000  1
  C  C114  1  0.58650000  0.30660000  0.44700000  1
  C  C115  1  0.60110000  0.33040000  0.41620000  1
  C  C116  1  0.55940000  0.30380000  0.37480000  1
  C  C117  1  0.50320000  0.25360000  0.36440000  1
  C  C118  1  0.48860000  0.22980000  0.39520000  1
  C  C119  1  0.57260000  0.32520000  0.34720000  1
  C  C120  1  0.04060000  0.05900000  0.01540000  1
  C  C121  1  0.19380000  0.04750000  0.03220000  1
  C  C122  1  0.25970000  0.04380000  0.02960000  1
  C  C123  1  0.31980000  0.09380000  0.06360000  1
  C  C124  1  0.35960000  0.13950000  0.05300000  1
  C  C125  1  0.41420000  0.18490000  0.08380000  1
  C  C126  1  0.42900000  0.18460000  0.12520000  1
  C  C127  1  0.38920000  0.13880000  0.13560000  1
  C  C128  1  0.33460000  0.09340000  0.10480000  1
  C  C129  1  0.47800000  0.22540000  0.15280000  1
  C  C130  1  0.97480000  0.45640000  0.01540000  1
  C  C131  1  0.83840000  0.48470000  0.03220000  1
  C  C132  1  0.76990000  0.48580000  0.02960000  1
  C  C133  1  0.74380000  0.46980000  0.06360000  1
  C  C134  1  0.69340000  0.41350000  0.05300000  1
  C  C135  1  0.66960000  0.39890000  0.08380000  1
  C  C136  1  0.69620000  0.44060000  0.12520000  1
  C  C137  1  0.74640000  0.49680000  0.13560000  1
  C  C138  1  0.77020000  0.51140000  0.10480000  1
  C  C139  1  0.67480000  0.42740000  0.15280000  1
  C  C140  1  0.05900000  0.97480000  0.51540000  1
  C  C141  1  0.04750000  0.83840000  0.53220000  1
  C  C142  1  0.04380000  0.76990000  0.52960000  1
  C  C143  1  0.09380000  0.74380000  0.56360000  1
  C  C144  1  0.13950000  0.69340000  0.55300000  1
  C  C145  1  0.18490000  0.66960000  0.58380000  1
  C  C146  1  0.18460000  0.69620000  0.62520000  1
  C  C147  1  0.13880000  0.74640000  0.63560000  1
  C  C148  1  0.09340000  0.77020000  0.60480000  1
  C  C149  1  0.22540000  0.67480000  0.65280000  1
  C  C150  1  0.45640000  0.04060000  0.51540000  1
  C  C151  1  0.48470000  0.19380000  0.53220000  1
  C  C152  1  0.48580000  0.25970000  0.52960000  1
  C  C153  1  0.46980000  0.31980000  0.56360000  1
  C  C154  1  0.41350000  0.35960000  0.55300000  1
  C  C155  1  0.39890000  0.41420000  0.58380000  1
  C  C156  1  0.44060000  0.42900000  0.62520000  1
  C  C157  1  0.49680000  0.38920000  0.63560000  1
  C  C158  1  0.51140000  0.33460000  0.60480000  1
  C  C159  1  0.42740000  0.47800000  0.65280000  1
  C  C160  1  0.06580000  0.50000000  1.00000000  1
  C  C161  1  0.14270000  0.50000000  1.00000000  1
  C  C162  1  0.93420000  1.00000000  0.00000000  1
  C  C163  1  0.85730000  1.00000000  0.00000000  1
  C  C164  1  1.00000000  0.06580000  0.50000000  1
  C  C165  1  0.00000000  0.14270000  0.50000000  1
  C  C166  1  0.50000000  0.93420000  0.50000000  1
  C  C167  1  0.50000000  0.85730000  0.50000000  1
  C  C168  1  0.93420000  0.50000000  0.00000000  1
  C  C169  1  0.85730000  0.50000000  0.00000000  1
  C  C170  1  0.06580000  1.00000000  1.00000000  1
  C  C171  1  0.14270000  0.00000000  0.00000000  1
  C  C172  1  1.00000000  0.93420000  0.50000000  1
  C  C173  1  1.00000000  0.85730000  0.50000000  1
  C  C174  1  0.50000000  0.06580000  0.50000000  1
  C  C175  1  0.50000000  0.14270000  0.50000000  1
  H  H176  1  0.07461000  0.41989000  0.02830000  1
  H  H177  1  0.18291000  0.47229000  0.05854000  1
  H  H178  1  0.34786000  0.38089000  0.02050000  1
  H  H179  1  0.44553000  0.35473000  0.07556000  1
  H  H180  1  0.40083000  0.52960000  0.16806000  1
  H  H181  1  0.30334000  0.55564000  0.11304000  1
  H  H182  1  0.47666000  0.45400000  0.24000000  1
  H  H183  1  0.95369000  0.10841000  0.02830000  1
  H  H184  1  0.87563000  0.08625000  0.05854000  1
  H  H185  1  0.67264000  0.13961000  0.02050000  1
  H  H186  1  0.63003000  0.22083000  0.07556000  1
  H  H187  1  0.76723000  0.13846000  0.16806000  1
  H  H188  1  0.80970000  0.05740000  0.11304000  1
  H  H189  1  0.76334000  0.28600000  0.24000000  1
  H  H190  1  0.10841000  0.07461000  0.52830000  1
  H  H191  1  0.08625000  0.18291000  0.55854000  1
  H  H192  1  0.13961000  0.34786000  0.52050000  1
  H  H193  1  0.22083000  0.44553000  0.57556000  1
  H  H194  1  0.13846000  0.40083000  0.66806000  1
  H  H195  1  0.05740000  0.30334000  0.61304000  1
  H  H196  1  0.28600000  0.47666000  0.74000000  1
  H  H197  1  0.41989000  0.95369000  0.52830000  1
  H  H198  1  0.47229000  0.87563000  0.55854000  1
  H  H199  1  0.38089000  0.67264000  0.52050000  1
  H  H200  1  0.35473000  0.63003000  0.57556000  1
  H  H201  1  0.52960000  0.76723000  0.66806000  1
  H  H202  1  0.55564000  0.80970000  0.61304000  1
  H  H203  1  0.45400000  0.76334000  0.74000000  1
  H  H204  1  0.92539000  0.89159000  0.97170000  1
  H  H205  1  0.81709000  0.91375000  0.94146000  1
  H  H206  1  0.65214000  0.86039000  0.97950000  1
  H  H207  1  0.55447000  0.77917000  0.92444000  1
  H  H208  1  0.59917000  0.86154000  0.83194000  1
  H  H209  1  0.69666000  0.94260000  0.88696000  1
  H  H210  1  0.52334000  0.71400000  0.76000000  1
  H  H211  1  0.04631000  0.58011000  0.97170000  1
  H  H212  1  0.12437000  0.52771000  0.94146000  1
  H  H213  1  0.32736000  0.61911000  0.97950000  1
  H  H214  1  0.36997000  0.64527000  0.92444000  1
  H  H215  1  0.23277000  0.47040000  0.83194000  1
  H  H216  1  0.19030000  0.44436000  0.88696000  1
  H  H217  1  0.23666000  0.54600000  0.76000000  1
  H  H218  1  0.89159000  0.04631000  0.47170000  1
  H  H219  1  0.91375000  0.12437000  0.44146000  1
  H  H220  1  0.86039000  0.32736000  0.47950000  1
  H  H221  1  0.77917000  0.36997000  0.42444000  1
  H  H222  1  0.86154000  0.23277000  0.33194000  1
  H  H223  1  0.94260000  0.19030000  0.38696000  1
  H  H224  1  0.71400000  0.23666000  0.26000000  1
  H  H225  1  0.58011000  0.92539000  0.47170000  1
  H  H226  1  0.52771000  0.81709000  0.44146000  1
  H  H227  1  0.61911000  0.65214000  0.47950000  1
  H  H228  1  0.64527000  0.55447000  0.42444000  1
  H  H229  1  0.47040000  0.59917000  0.33194000  1
  H  H230  1  0.44436000  0.69666000  0.38696000  1
  H  H231  1  0.54600000  0.52334000  0.26000000  1
  H  H232  1  0.92539000  0.58011000  0.97170000  1
  H  H233  1  0.81709000  0.52771000  0.94146000  1
  H  H234  1  0.65214000  0.61911000  0.97950000  1
  H  H235  1  0.55447000  0.64527000  0.92444000  1
  H  H236  1  0.59917000  0.47040000  0.83194000  1
  H  H237  1  0.69666000  0.44436000  0.88696000  1
  H  H238  1  0.52334000  0.54600000  0.76000000  1
  H  H239  1  0.04631000  0.89159000  0.97170000  1
  H  H240  1  0.12437000  0.91375000  0.94146000  1
  H  H241  1  0.32736000  0.86039000  0.97950000  1
  H  H242  1  0.36997000  0.77917000  0.92444000  1
  H  H243  1  0.23277000  0.86154000  0.83194000  1
  H  H244  1  0.19030000  0.94260000  0.88696000  1
  H  H245  1  0.23666000  0.71400000  0.76000000  1
  H  H246  1  0.89159000  0.92539000  0.47170000  1
  H  H247  1  0.91375000  0.81709000  0.44146000  1
  H  H248  1  0.86039000  0.65214000  0.47950000  1
  H  H249  1  0.77917000  0.55447000  0.42444000  1
  H  H250  1  0.86154000  0.59917000  0.33194000  1
  H  H251  1  0.94260000  0.69666000  0.38696000  1
  H  H252  1  0.71400000  0.52334000  0.26000000  1
  H  H253  1  0.58011000  0.04631000  0.47170000  1
  H  H254  1  0.52771000  0.12437000  0.44146000  1
  H  H255  1  0.61911000  0.32736000  0.47950000  1
  H  H256  1  0.64527000  0.36997000  0.42444000  1
  H  H257  1  0.47040000  0.23277000  0.33194000  1
  H  H258  1  0.44436000  0.19030000  0.38696000  1
  H  H259  1  0.54600000  0.23666000  0.26000000  1
  H  H260  1  0.07461000  0.10841000  0.02830000  1
  H  H261  1  0.18291000  0.08625000  0.05854000  1
  H  H262  1  0.34786000  0.13961000  0.02050000  1
  H  H263  1  0.44553000  0.22083000  0.07556000  1
  H  H264  1  0.40083000  0.13846000  0.16806000  1
  H  H265  1  0.30334000  0.05740000  0.11304000  1
  H  H266  1  0.47666000  0.28600000  0.24000000  1
  H  H267  1  0.95369000  0.41989000  0.02830000  1
  H  H268  1  0.87563000  0.47229000  0.05854000  1
  H  H269  1  0.67264000  0.38089000  0.02050000  1
  H  H270  1  0.63003000  0.35473000  0.07556000  1
  H  H271  1  0.76723000  0.52960000  0.16806000  1
  H  H272  1  0.80970000  0.55564000  0.11304000  1
  H  H273  1  0.76334000  0.45400000  0.24000000  1
  H  H274  1  0.10841000  0.95369000  0.52830000  1
  H  H275  1  0.08625000  0.87563000  0.55854000  1
  H  H276  1  0.13961000  0.67264000  0.52050000  1
  H  H277  1  0.22083000  0.63003000  0.57556000  1
  H  H278  1  0.13846000  0.76723000  0.66806000  1
  H  H279  1  0.05740000  0.80970000  0.61304000  1
  H  H280  1  0.28600000  0.76334000  0.74000000  1
  H  H281  1  0.41989000  0.07461000  0.52830000  1
  H  H282  1  0.47229000  0.18291000  0.55854000  1
  H  H283  1  0.38089000  0.34786000  0.52050000  1
  H  H284  1  0.35473000  0.44553000  0.57556000  1
  H  H285  1  0.52960000  0.40083000  0.66806000  1
  H  H286  1  0.55564000  0.30334000  0.61304000  1
  H  H287  1  0.45400000  0.47666000  0.74000000  1
  N  N288  1  0.27800000  0.50000000  1.00000000  1
  N  N289  1  0.72200000  0.00000000  0.00000000  1
  N  N290  1  0.00000000  0.27800000  0.50000000  1
  N  N291  1  0.50000000  0.72200000  0.50000000  1
  N  N292  1  0.72200000  0.50000000  0.00000000  1
  N  N293  1  0.27800000  0.00000000  0.00000000  1
  N  N294  1  0.00000000  0.72200000  0.50000000  1
  N  N295  1  0.50000000  0.27800000  0.50000000  1
  O  O296  1  0.51790000  0.37630000  0.14260000  1
  O  O297  1  0.48950000  0.46400000  0.19200000  1
  O  O298  1  0.42300000  0.45400000  0.24000000  1
  O  O299  1  0.62470000  0.26630000  0.14260000  1
  O  O300  1  0.70250000  0.22800000  0.19200000  1
  O  O301  1  0.81700000  0.28600000  0.24000000  1
  O  O302  1  0.26630000  0.51790000  0.64260000  1
  O  O303  1  0.22800000  0.48950000  0.69200000  1
  O  O304  1  0.28600000  0.42300000  0.74000000  1
  O  O305  1  0.37630000  0.62470000  0.64260000  1
  O  O306  1  0.46400000  0.70250000  0.69200000  1
  O  O307  1  0.45400000  0.81700000  0.74000000  1
  O  O308  1  0.48210000  0.73370000  0.85740000  1
  O  O309  1  0.51050000  0.77200000  0.80800000  1
  O  O310  1  0.57700000  0.71400000  0.76000000  1
  O  O311  1  0.37530000  0.62370000  0.85740000  1
  O  O312  1  0.29750000  0.53600000  0.80800000  1
  O  O313  1  0.18300000  0.54600000  0.76000000  1
  O  O314  1  0.73370000  0.37530000  0.35740000  1
  O  O315  1  0.77200000  0.29750000  0.30800000  1
  O  O316  1  0.71400000  0.18300000  0.26000000  1
  O  O317  1  0.62370000  0.48210000  0.35740000  1
  O  O318  1  0.53600000  0.51050000  0.30800000  1
  O  O319  1  0.54600000  0.57700000  0.26000000  1
  O  O320  1  0.48210000  0.62370000  0.85740000  1
  O  O321  1  0.51050000  0.53600000  0.80800000  1
  O  O322  1  0.57700000  0.54600000  0.76000000  1
  O  O323  1  0.37530000  0.73370000  0.85740000  1
  O  O324  1  0.29750000  0.77200000  0.80800000  1
  O  O325  1  0.18300000  0.71400000  0.76000000  1
  O  O326  1  0.73370000  0.48210000  0.35740000  1
  O  O327  1  0.77200000  0.51050000  0.30800000  1
  O  O328  1  0.71400000  0.57700000  0.26000000  1
  O  O329  1  0.62370000  0.37530000  0.35740000  1
  O  O330  1  0.53600000  0.29750000  0.30800000  1
  O  O331  1  0.54600000  0.18300000  0.26000000  1
  O  O332  1  0.51790000  0.26630000  0.14260000  1
  O  O333  1  0.48950000  0.22800000  0.19200000  1
  O  O334  1  0.42300000  0.28600000  0.24000000  1
  O  O335  1  0.62470000  0.37630000  0.14260000  1
  O  O336  1  0.70250000  0.46400000  0.19200000  1
  O  O337  1  0.81700000  0.45400000  0.24000000  1
  O  O338  1  0.26630000  0.62470000  0.64260000  1
  O  O339  1  0.22800000  0.70250000  0.69200000  1
  O  O340  1  0.28600000  0.81700000  0.74000000  1
  O  O341  1  0.37630000  0.51790000  0.64260000  1
  O  O342  1  0.46400000  0.48950000  0.69200000  1
  O  O343  1  0.45400000  0.42300000  0.74000000  1
  O  O344  1  0.50170000  0.35370000  0.20740000  1
  O  O345  1  0.70570000  0.35370000  0.20740000  1
  O  O346  1  0.35370000  0.50170000  0.70740000  1
  O  O347  1  0.35370000  0.70570000  0.70740000  1
  O  O348  1  0.49830000  0.64630000  0.79260000  1
  O  O349  1  0.29430000  0.64630000  0.79260000  1
  O  O350  1  0.64630000  0.29430000  0.29260000  1
  O  O351  1  0.64630000  0.49830000  0.29260000  1
  O  O352  1  0.60590000  0.45390000  0.21180000  1
  O  O353  1  0.60590000  0.25790000  0.21180000  1
  O  O354  1  0.25790000  0.60590000  0.71180000  1
  O  O355  1  0.45390000  0.60590000  0.71180000  1
  O  O356  1  0.39410000  0.74210000  0.78820000  1
  O  O357  1  0.39410000  0.54610000  0.78820000  1
  O  O358  1  0.74210000  0.39410000  0.28820000  1
  O  O359  1  0.54610000  0.39410000  0.28820000  1
  Zr  Zr360  1  0.59156000  0.34156000  0.18312000  1
  Zr  Zr361  1  0.34156000  0.59156000  0.68312000  1
  Zr  Zr362  1  0.40844000  0.65844000  0.81688000  1
  Zr  Zr363  1  0.65844000  0.40844000  0.31688000  1
  Zr  Zr364  1  0.54310000  0.45690000  0.25000000  1
  Zr  Zr365  1  0.70690000  0.29310000  0.25000000  1
  Zr  Zr366  1  0.29310000  0.54310000  0.75000000  1
  Zr  Zr367  1  0.45690000  0.70690000  0.75000000  1
  Zr  Zr368  1  0.45690000  0.54310000  0.75000000  1
  Zr  Zr369  1  0.29310000  0.70690000  0.75000000  1
  Zr  Zr370  1  0.70690000  0.45690000  0.25000000  1
  Zr  Zr371  1  0.54310000  0.29310000  0.25000000  1
