# generated using pymatgen
data_Zr3H24C44(NO6)2
_symmetry_space_group_name_H-M   'P 1'
_cell_length_a   20.56000000
_cell_length_b   20.56000000
_cell_length_c   36.57032651
_cell_angle_alpha   106.32599970
_cell_angle_beta   106.32599970
_cell_angle_gamma   90.00000000
_symmetry_Int_Tables_number   1
_chemical_formula_structural   Zr3H24C44(NO6)2
_chemical_formula_sum   'Zr12 H96 C176 N8 O48'
_cell_volume   14184.74664704
_cell_formula_units_Z   4
loop_
 _symmetry_equiv_pos_site_id
 _symmetry_equiv_pos_as_xyz
  1  'x, y, z'
loop_
 _atom_site_type_symbol
 _atom_site_label
 _atom_site_symmetry_multiplicity
 _atom_site_fract_x
 _atom_site_fract_y
 _atom_site_fract_z
 _atom_site_occupancy
  C  C0  1  0.03970000  0.46010000  0.01620000  1
  C  C1  1  0.18810000  0.48850000  0.03300000  1
  C  C2  1  0.25450000  0.48930000  0.03060000  1
  C  C3  1  0.30410000  0.47950000  0.05900000  1
  C  C4  1  0.35780000  0.42840000  0.04880000  1
  C  C5  1  0.41750000  0.41650000  0.08300000  1
  C  C6  1  0.42330000  0.45470000  0.12740000  1
  C  C7  1  0.36960000  0.50480000  0.13760000  1
  C  C8  1  0.31000000  0.51670000  0.10340000  1
  C  C9  1  0.47290000  0.44490000  0.15580000  1
  C  C10  1  0.06330000  0.50000000  1.00000000  1
  C  C11  1  0.13650000  0.50000000  1.00000000  1
  C  C12  1  0.05610000  0.03970000  0.51620000  1
  C  C13  1  0.04450000  0.18810000  0.53300000  1
  C  C14  1  0.04130000  0.25450000  0.53060000  1
  C  C15  1  0.07950000  0.30410000  0.55900000  1
  C  C16  1  0.12040000  0.35780000  0.54880000  1
  C  C17  1  0.16650000  0.41750000  0.58300000  1
  C  C18  1  0.17270000  0.42330000  0.62740000  1
  C  C19  1  0.13280000  0.36960000  0.63760000  1
  C  C20  1  0.08670000  0.31000000  0.60340000  1
  C  C21  1  0.21090000  0.47290000  0.65580000  1
  C  C22  1  1.00000000  0.06330000  0.50000000  1
  C  C23  1  0.00000000  0.13650000  0.50000000  1
  C  C24  1  0.97650000  0.05610000  0.01620000  1
  C  C25  1  0.84490000  0.04450000  0.03300000  1
  C  C26  1  0.77610000  0.04130000  0.03060000  1
  C  C27  1  0.75490000  0.07950000  0.05900000  1
  C  C28  1  0.69103333  0.12040000  0.04880000  1
  C  C29  1  0.66550000  0.16650000  0.08300000  1
  C  C30  1  0.70410000  0.17270000  0.12740000  1
  C  C31  1  0.76800000  0.13280000  0.13760000  1
  C  C32  1  0.79340000  0.08670000  0.10340000  1
  C  C33  1  0.68290000  0.21090000  0.15580000  1
  C  C34  1  0.93670000  0.00000000  0.00000000  1
  C  C35  1  0.86350000  1.00000000  0.00000000  1
  C  C36  1  0.46010000  0.97650000  0.51620000  1
  C  C37  1  0.48850000  0.84490000  0.53300000  1
  C  C38  1  0.48930000  0.77610000  0.53060000  1
  C  C39  1  0.47950000  0.75490000  0.55900000  1
  C  C40  1  0.42840000  0.69100000  0.54880000  1
  C  C41  1  0.41650000  0.66550000  0.58300000  1
  C  C42  1  0.45470000  0.70410000  0.62740000  1
  C  C43  1  0.50480000  0.76800000  0.63760000  1
  C  C44  1  0.51670000  0.79340000  0.60340000  1
  C  C45  1  0.44490000  0.68290000  0.65580000  1
  C  C46  1  0.50000000  0.93670000  0.50000000  1
  C  C47  1  0.50000000  0.86350000  0.50000000  1
  C  C48  1  0.02350000  0.53990000  0.98380000  1
  C  C49  1  0.15510000  0.51150000  0.96700000  1
  C  C50  1  0.22390000  0.51070000  0.96940000  1
  C  C51  1  0.24510000  0.52050000  0.94100000  1
  C  C52  1  0.30900000  0.57160000  0.95120000  1
  C  C53  1  0.33450000  0.58350000  0.91700000  1
  C  C54  1  0.29590000  0.54530000  0.87260000  1
  C  C55  1  0.23200000  0.49520000  0.86240000  1
  C  C56  1  0.20660000  0.48330000  0.89660000  1
  C  C57  1  0.31710000  0.55510000  0.84420000  1
  C  C58  1  0.94390000  0.02350000  0.48380000  1
  C  C59  1  0.95550000  0.15510000  0.46700000  1
  C  C60  1  0.95870000  0.22390000  0.46940000  1
  C  C61  1  0.92050000  0.24510000  0.44100000  1
  C  C62  1  0.87960000  0.30900000  0.45120000  1
  C  C63  1  0.83350000  0.33450000  0.41700000  1
  C  C64  1  0.82730000  0.29590000  0.37260000  1
  C  C65  1  0.86720000  0.23200000  0.36240000  1
  C  C66  1  0.91330000  0.20660000  0.39660000  1
  C  C67  1  0.78910000  0.31710000  0.34420000  1
  C  C68  1  0.96030000  0.94390000  0.98380000  1
  C  C69  1  0.81190000  0.95550000  0.96700000  1
  C  C70  1  0.74550000  0.95870000  0.96940000  1
  C  C71  1  0.69590000  0.92050000  0.94100000  1
  C  C72  1  0.64223333  0.87960000  0.95120000  1
  C  C73  1  0.58250000  0.83350000  0.91700000  1
  C  C74  1  0.57670000  0.82730000  0.87260000  1
  C  C75  1  0.63040000  0.86720000  0.86240000  1
  C  C76  1  0.69000000  0.91330000  0.89660000  1
  C  C77  1  0.52710000  0.78910000  0.84420000  1
  C  C78  1  0.53990000  0.96030000  0.48380000  1
  C  C79  1  0.51150000  0.81190000  0.46700000  1
  C  C80  1  0.51070000  0.74550000  0.46940000  1
  C  C81  1  0.52050000  0.69590000  0.44100000  1
  C  C82  1  0.57160000  0.64220000  0.45120000  1
  C  C83  1  0.58350000  0.58250000  0.41700000  1
  C  C84  1  0.54530000  0.57670000  0.37260000  1
  C  C85  1  0.49520000  0.63040000  0.36240000  1
  C  C86  1  0.48330000  0.69000000  0.39660000  1
  C  C87  1  0.55510000  0.52710000  0.34420000  1
  C  C88  1  0.96030000  0.53990000  0.98380000  1
  C  C89  1  0.81190000  0.51150000  0.96700000  1
  C  C90  1  0.74550000  0.51070000  0.96940000  1
  C  C91  1  0.69590000  0.52050000  0.94100000  1
  C  C92  1  0.64223333  0.57160000  0.95120000  1
  C  C93  1  0.58250000  0.58350000  0.91700000  1
  C  C94  1  0.57670000  0.54530000  0.87260000  1
  C  C95  1  0.63040000  0.49520000  0.86240000  1
  C  C96  1  0.69000000  0.48330000  0.89660000  1
  C  C97  1  0.52710000  0.55510000  0.84420000  1
  C  C98  1  0.93670000  0.50000000  0.00000000  1
  C  C99  1  0.86350000  0.50000000  0.00000000  1
  C  C100  1  0.94390000  0.96030000  0.48380000  1
  C  C101  1  0.95550000  0.81190000  0.46700000  1
  C  C102  1  0.95870000  0.74550000  0.46940000  1
  C  C103  1  0.92050000  0.69590000  0.44100000  1
  C  C104  1  0.87960000  0.64220000  0.45120000  1
  C  C105  1  0.83350000  0.58250000  0.41700000  1
  C  C106  1  0.82730000  0.57670000  0.37260000  1
  C  C107  1  0.86720000  0.63040000  0.36240000  1
  C  C108  1  0.91330000  0.69000000  0.39660000  1
  C  C109  1  0.78910000  0.52710000  0.34420000  1
  C  C110  1  1.00000000  0.93670000  0.50000000  1
  C  C111  1  1.00000000  0.86350000  0.50000000  1
  C  C112  1  0.02350000  0.94390000  0.98380000  1
  C  C113  1  0.15510000  0.95550000  0.96700000  1
  C  C114  1  0.22390000  0.95870000  0.96940000  1
  C  C115  1  0.24510000  0.92050000  0.94100000  1
  C  C116  1  0.30900000  0.87960000  0.95120000  1
  C  C117  1  0.33450000  0.83350000  0.91700000  1
  C  C118  1  0.29590000  0.82730000  0.87260000  1
  C  C119  1  0.23200000  0.86720000  0.86240000  1
  C  C120  1  0.20660000  0.91330000  0.89660000  1
  C  C121  1  0.31710000  0.78910000  0.84420000  1
  C  C122  1  0.06330000  1.00000000  1.00000000  1
  C  C123  1  0.13650000  1.00000000  1.00000000  1
  C  C124  1  0.53990000  0.02350000  0.48380000  1
  C  C125  1  0.51150000  0.15510000  0.46700000  1
  C  C126  1  0.51070000  0.22390000  0.46940000  1
  C  C127  1  0.52050000  0.24510000  0.44100000  1
  C  C128  1  0.57160000  0.30900000  0.45120000  1
  C  C129  1  0.58350000  0.33450000  0.41700000  1
  C  C130  1  0.54530000  0.29590000  0.37260000  1
  C  C131  1  0.49520000  0.23200000  0.36240000  1
  C  C132  1  0.48330000  0.20660000  0.39660000  1
  C  C133  1  0.55510000  0.31710000  0.34420000  1
  C  C134  1  0.50000000  0.06330000  0.50000000  1
  C  C135  1  0.50000000  0.13650000  0.50000000  1
  C  C136  1  0.97650000  0.46010000  0.01620000  1
  C  C137  1  0.84490000  0.48850000  0.03300000  1
  C  C138  1  0.77610000  0.48930000  0.03060000  1
  C  C139  1  0.75490000  0.47950000  0.05900000  1
  C  C140  1  0.69103333  0.42840000  0.04880000  1
  C  C141  1  0.66550000  0.41650000  0.08300000  1
  C  C142  1  0.70410000  0.45470000  0.12740000  1
  C  C143  1  0.76800000  0.50480000  0.13760000  1
  C  C144  1  0.79340000  0.51670000  0.10340000  1
  C  C145  1  0.68290000  0.44490000  0.15580000  1
  C  C146  1  0.05610000  0.97650000  0.51620000  1
  C  C147  1  0.04450000  0.84490000  0.53300000  1
  C  C148  1  0.04130000  0.77610000  0.53060000  1
  C  C149  1  0.07950000  0.75490000  0.55900000  1
  C  C150  1  0.12040000  0.69100000  0.54880000  1
  C  C151  1  0.16650000  0.66550000  0.58300000  1
  C  C152  1  0.17270000  0.70410000  0.62740000  1
  C  C153  1  0.13280000  0.76800000  0.63760000  1
  C  C154  1  0.08670000  0.79340000  0.60340000  1
  C  C155  1  0.21090000  0.68290000  0.65580000  1
  C  C156  1  0.03970000  0.05610000  0.01620000  1
  C  C157  1  0.18810000  0.04450000  0.03300000  1
  C  C158  1  0.25450000  0.04130000  0.03060000  1
  C  C159  1  0.30410000  0.07950000  0.05900000  1
  C  C160  1  0.35780000  0.12040000  0.04880000  1
  C  C161  1  0.41750000  0.16650000  0.08300000  1
  C  C162  1  0.42330000  0.17270000  0.12740000  1
  C  C163  1  0.36960000  0.13280000  0.13760000  1
  C  C164  1  0.31000000  0.08670000  0.10340000  1
  C  C165  1  0.47290000  0.21090000  0.15580000  1
  C  C166  1  0.46010000  0.03970000  0.51620000  1
  C  C167  1  0.48850000  0.18810000  0.53300000  1
  C  C168  1  0.48930000  0.25450000  0.53060000  1
  C  C169  1  0.47950000  0.30410000  0.55900000  1
  C  C170  1  0.42840000  0.35780000  0.54880000  1
  C  C171  1  0.41650000  0.41750000  0.58300000  1
  C  C172  1  0.45470000  0.42330000  0.62740000  1
  C  C173  1  0.50480000  0.36960000  0.63760000  1
  C  C174  1  0.51670000  0.31000000  0.60340000  1
  C  C175  1  0.44490000  0.47290000  0.65580000  1
  H  H176  1  0.06830000  0.43130000  0.02780000  1
  H  H177  1  0.17610000  0.48020000  0.05440000  1
  H  H178  1  0.35430000  0.40600000  0.02220000  1
  H  H179  1  0.44960000  0.38640000  0.07680000  1
  H  H180  1  0.37310000  0.52810000  0.16420000  1
  H  H181  1  0.27790000  0.54780000  0.10960000  1
  H  H182  1  0.09650000  0.06830000  0.52780000  1
  H  H183  1  0.07420000  0.17610000  0.55440000  1
  H  H184  1  0.11620000  0.35430000  0.52220000  1
  H  H185  1  0.19040000  0.44960000  0.57680000  1
  H  H186  1  0.13610000  0.37310000  0.66420000  1
  H  H187  1  0.06180000  0.27790000  0.60960000  1
  H  H188  1  0.95950000  0.09650000  0.02780000  1
  H  H189  1  0.87830000  0.07420000  0.05440000  1
  H  H190  1  0.66790000  0.11620000  0.02220000  1
  H  H191  1  0.62720000  0.19040000  0.07680000  1
  H  H192  1  0.79110000  0.13610000  0.16420000  1
  H  H193  1  0.83170000  0.06180000  0.10960000  1
  H  H194  1  0.43130000  0.95950000  0.52780000  1
  H  H195  1  0.48020000  0.87830000  0.55440000  1
  H  H196  1  0.40600000  0.66790000  0.52220000  1
  H  H197  1  0.38640000  0.62720000  0.57680000  1
  H  H198  1  0.52810000  0.79110000  0.66420000  1
  H  H199  1  0.54780000  0.83170000  0.60960000  1
  H  H200  1  0.04050000  0.56870000  0.97220000  1
  H  H201  1  0.12170000  0.51980000  0.94560000  1
  H  H202  1  0.33210000  0.59400000  0.97780000  1
  H  H203  1  0.37280000  0.61360000  0.92320000  1
  H  H204  1  0.20890000  0.47190000  0.83580000  1
  H  H205  1  0.16830000  0.45220000  0.89040000  1
  H  H206  1  0.90350000  0.04050000  0.47220000  1
  H  H207  1  0.92580000  0.12170000  0.44560000  1
  H  H208  1  0.88380000  0.33210000  0.47780000  1
  H  H209  1  0.80960000  0.37280000  0.42320000  1
  H  H210  1  0.86390000  0.20890000  0.33580000  1
  H  H211  1  0.93820000  0.16830000  0.39040000  1
  H  H212  1  0.93170000  0.90350000  0.97220000  1
  H  H213  1  0.82390000  0.92580000  0.94560000  1
  H  H214  1  0.64570000  0.88380000  0.97780000  1
  H  H215  1  0.55040000  0.80960000  0.92320000  1
  H  H216  1  0.62690000  0.86390000  0.83580000  1
  H  H217  1  0.72210000  0.93820000  0.89040000  1
  H  H218  1  0.56870000  0.93170000  0.47220000  1
  H  H219  1  0.51980000  0.82390000  0.44560000  1
  H  H220  1  0.59400000  0.64570000  0.47780000  1
  H  H221  1  0.61360000  0.55040000  0.42320000  1
  H  H222  1  0.47190000  0.62690000  0.33580000  1
  H  H223  1  0.45220000  0.72210000  0.39040000  1
  H  H224  1  0.93170000  0.56870000  0.97220000  1
  H  H225  1  0.82390000  0.51980000  0.94560000  1
  H  H226  1  0.64570000  0.59400000  0.97780000  1
  H  H227  1  0.55040000  0.61360000  0.92320000  1
  H  H228  1  0.62690000  0.47190000  0.83580000  1
  H  H229  1  0.72210000  0.45220000  0.89040000  1
  H  H230  1  0.90350000  0.93170000  0.47220000  1
  H  H231  1  0.92580000  0.82390000  0.44560000  1
  H  H232  1  0.88380000  0.64570000  0.47780000  1
  H  H233  1  0.80960000  0.55040000  0.42320000  1
  H  H234  1  0.86390000  0.62690000  0.33580000  1
  H  H235  1  0.93820000  0.72210000  0.39040000  1
  H  H236  1  0.04050000  0.90350000  0.97220000  1
  H  H237  1  0.12170000  0.92580000  0.94560000  1
  H  H238  1  0.33210000  0.88380000  0.97780000  1
  H  H239  1  0.37280000  0.80960000  0.92320000  1
  H  H240  1  0.20890000  0.86390000  0.83580000  1
  H  H241  1  0.16830000  0.93820000  0.89040000  1
  H  H242  1  0.56870000  0.04050000  0.47220000  1
  H  H243  1  0.51980000  0.12170000  0.44560000  1
  H  H244  1  0.59400000  0.33210000  0.47780000  1
  H  H245  1  0.61360000  0.37280000  0.42320000  1
  H  H246  1  0.47190000  0.20890000  0.33580000  1
  H  H247  1  0.45220000  0.16830000  0.39040000  1
  H  H248  1  0.95950000  0.43130000  0.02780000  1
  H  H249  1  0.87830000  0.48020000  0.05440000  1
  H  H250  1  0.66790000  0.40600000  0.02220000  1
  H  H251  1  0.62720000  0.38640000  0.07680000  1
  H  H252  1  0.79110000  0.52810000  0.16420000  1
  H  H253  1  0.83170000  0.54780000  0.10960000  1
  H  H254  1  0.09650000  0.95950000  0.52780000  1
  H  H255  1  0.07420000  0.87830000  0.55440000  1
  H  H256  1  0.11620000  0.66790000  0.52220000  1
  H  H257  1  0.19040000  0.62720000  0.57680000  1
  H  H258  1  0.13610000  0.79110000  0.66420000  1
  H  H259  1  0.06180000  0.83170000  0.60960000  1
  H  H260  1  0.06830000  0.09650000  0.02780000  1
  H  H261  1  0.17610000  0.07420000  0.05440000  1
  H  H262  1  0.35430000  0.11620000  0.02220000  1
  H  H263  1  0.44960000  0.19040000  0.07680000  1
  H  H264  1  0.37310000  0.13610000  0.16420000  1
  H  H265  1  0.27790000  0.06180000  0.10960000  1
  H  H266  1  0.43130000  0.06830000  0.52780000  1
  H  H267  1  0.48020000  0.17610000  0.55440000  1
  H  H268  1  0.40600000  0.35430000  0.52220000  1
  H  H269  1  0.38640000  0.44960000  0.57680000  1
  H  H270  1  0.52810000  0.37310000  0.66420000  1
  H  H271  1  0.54780000  0.27790000  0.60960000  1
  N  N272  1  0.27200000  0.50000000  1.00000000  1
  N  N273  1  0.00000000  0.27200000  0.50000000  1
  N  N274  1  0.72800000  1.00000000  0.00000000  1
  N  N275  1  0.50000000  0.72800000  0.50000000  1
  N  N276  1  0.72800000  0.50000000  0.00000000  1
  N  N277  1  0.00000000  0.72800000  0.50000000  1
  N  N278  1  0.27200000  0.00000000  0.00000000  1
  N  N279  1  0.50000000  0.27200000  0.50000000  1
  O  O280  1  0.51600000  0.40000000  0.14800000  1
  O  O281  1  0.48040000  0.47940000  0.19280000  1
  O  O282  1  0.51710000  0.35410000  0.20820000  1
  O  O283  1  0.60520000  0.44020000  0.21040000  1
  O  O284  1  0.24800000  0.51600000  0.64800000  1
  O  O285  1  0.21340000  0.48040000  0.69280000  1
  O  O286  1  0.35410000  0.51710000  0.70820000  1
  O  O287  1  0.27020000  0.60520000  0.71040000  1
  O  O288  1  0.63200000  0.24800000  0.14800000  1
  O  O289  1  0.71240000  0.21340000  0.19280000  1
  O  O290  1  0.69110000  0.35410000  0.20820000  1
  O  O291  1  0.60520000  0.27020000  0.21040000  1
  O  O292  1  0.40000000  0.63200000  0.64800000  1
  O  O293  1  0.47940000  0.71240000  0.69280000  1
  O  O294  1  0.35410000  0.69110000  0.70820000  1
  O  O295  1  0.44020000  0.60520000  0.71040000  1
  O  O296  1  0.36800000  0.60000000  0.85200000  1
  O  O297  1  0.28760000  0.52060000  0.80720000  1
  O  O298  1  0.30890000  0.64590000  0.79180000  1
  O  O299  1  0.39480000  0.55980000  0.78960000  1
  O  O300  1  0.75200000  0.36800000  0.35200000  1
  O  O301  1  0.78660000  0.28760000  0.30720000  1
  O  O302  1  0.64590000  0.30890000  0.29180000  1
  O  O303  1  0.72980000  0.39480000  0.28960000  1
  O  O304  1  0.48400000  0.75200000  0.85200000  1
  O  O305  1  0.51960000  0.78660000  0.80720000  1
  O  O306  1  0.48290000  0.64590000  0.79180000  1
  O  O307  1  0.39480000  0.72980000  0.78960000  1
  O  O308  1  0.60000000  0.48400000  0.35200000  1
  O  O309  1  0.52060000  0.51960000  0.30720000  1
  O  O310  1  0.64590000  0.48290000  0.29180000  1
  O  O311  1  0.55980000  0.39480000  0.28960000  1
  O  O312  1  0.48400000  0.60000000  0.85200000  1
  O  O313  1  0.51960000  0.52060000  0.80720000  1
  O  O314  1  0.75200000  0.48400000  0.35200000  1
  O  O315  1  0.78660000  0.51960000  0.30720000  1
  O  O316  1  0.36800000  0.75200000  0.85200000  1
  O  O317  1  0.28760000  0.78660000  0.80720000  1
  O  O318  1  0.60000000  0.36800000  0.35200000  1
  O  O319  1  0.52060000  0.28760000  0.30720000  1
  O  O320  1  0.63200000  0.40000000  0.14800000  1
  O  O321  1  0.71240000  0.47940000  0.19280000  1
  O  O322  1  0.24800000  0.63200000  0.64800000  1
  O  O323  1  0.21340000  0.71240000  0.69280000  1
  O  O324  1  0.51600000  0.24800000  0.14800000  1
  O  O325  1  0.48040000  0.21340000  0.19280000  1
  O  O326  1  0.40000000  0.51600000  0.64800000  1
  O  O327  1  0.47940000  0.48040000  0.69280000  1
  Zr  Zr328  1  0.58628000  0.33628000  0.17256000  1
  Zr  Zr329  1  0.54320000  0.45680000  0.25000000  1
  Zr  Zr330  1  0.33628000  0.58628000  0.67256000  1
  Zr  Zr331  1  0.29320000  0.54320000  0.75000000  1
  Zr  Zr332  1  0.70680000  0.29320000  0.25000000  1
  Zr  Zr333  1  0.45680000  0.70680000  0.75000000  1
  Zr  Zr334  1  0.41372000  0.66372000  0.82744000  1
  Zr  Zr335  1  0.66372000  0.41372000  0.32744000  1
  Zr  Zr336  1  0.45680000  0.54320000  0.75000000  1
  Zr  Zr337  1  0.70680000  0.45680000  0.25000000  1
  Zr  Zr338  1  0.29320000  0.70680000  0.75000000  1
  Zr  Zr339  1  0.54320000  0.29320000  0.25000000  1
