# generated using pymatgen
data_Zr3B3H13C26O21
_symmetry_space_group_name_H-M   'P 1'
_cell_length_a   17.01980000
_cell_length_b   29.92603349
_cell_length_c   29.92603349
_cell_angle_alpha   85.36181927
_cell_angle_beta   73.47913765
_cell_angle_gamma   73.47913765
_symmetry_Int_Tables_number   1
_chemical_formula_structural   Zr3B3H13C26O21
_chemical_formula_sum   'Zr24 B24 H104 C208 O168'
_cell_volume   14009.83275570
_cell_formula_units_Z   8
loop_
 _symmetry_equiv_pos_site_id
 _symmetry_equiv_pos_as_xyz
  1  'x, y, z'
loop_
 _atom_site_type_symbol
 _atom_site_label
 _atom_site_symmetry_multiplicity
 _atom_site_fract_x
 _atom_site_fract_y
 _atom_site_fract_z
 _atom_site_occupancy
  B  B0  1  0.68780000  0.10150000  0.84010000  1
  B  B1  1  0.62940000  0.39850000  0.65990000  1
  B  B2  1  0.78930000  0.84010000  0.39850000  1
  B  B3  1  0.02790000  0.65990000  0.10150000  1
  B  B4  1  0.31220000  0.65990000  0.39850000  1
  B  B5  1  0.37060000  0.84010000  0.10150000  1
  B  B6  1  0.21070000  0.10150000  0.65990000  1
  B  B7  1  0.97210000  0.39850000  0.84010000  1
  B  B8  1  0.31220000  0.89850000  0.15990000  1
  B  B9  1  0.37060000  0.60150000  0.34010000  1
  B  B10  1  0.21070000  0.15990000  0.60150000  1
  B  B11  1  0.97210000  0.34010000  0.89850000  1
  B  B12  1  0.68780000  0.34010000  0.60150000  1
  B  B13  1  0.62940000  0.15990000  0.89850000  1
  B  B14  1  0.78930000  0.89850000  0.34010000  1
  B  B15  1  0.02790000  0.60150000  0.15990000  1
  B  B16  1  0.55000000  0.10950000  0.89050000  1
  B  B17  1  0.55000000  0.39050000  0.60950000  1
  B  B18  1  0.65950000  0.89050000  0.39050000  1
  B  B19  1  0.94050000  0.60950000  0.10950000  1
  B  B20  1  0.45000000  0.60950000  0.39050000  1
  B  B21  1  0.45000000  0.89050000  0.10950000  1
  B  B22  1  0.34050000  0.10950000  0.60950000  1
  B  B23  1  0.05950000  0.39050000  0.89050000  1
  C  C24  1  0.82680000  0.05770000  0.69610000  1
  C  C25  1  0.84640000  0.09110000  0.71710000  1
  C  C26  1  0.80200000  0.10560000  0.76260000  1
  C  C27  1  0.87420000  0.04120000  0.64880000  1
  C  C28  1  0.73690000  0.08670000  0.78890000  1
  C  C29  1  0.76340000  0.03950000  0.72130000  1
  C  C30  1  0.37630000  0.04560000  0.89760000  1
  C  C31  1  0.72010000  0.05210000  0.76710000  1
  C  C32  1  0.45180000  0.05780000  0.88380000  1
  C  C33  1  0.83880000  0.89310000  0.51930000  1
  C  C34  1  0.87870000  0.88870000  0.42670000  1
  C  C35  1  0.58060000  0.44230000  0.80390000  1
  C  C36  1  0.65460000  0.40890000  0.78290000  1
  C  C37  1  0.67020000  0.39440000  0.73740000  1
  C  C38  1  0.56420000  0.45880000  0.85120000  1
  C  C39  1  0.61250000  0.41330000  0.71110000  1
  C  C40  1  0.52420000  0.46050000  0.77870000  1
  C  C41  1  0.31950000  0.45440000  0.60240000  1
  C  C42  1  0.53930000  0.44790000  0.73290000  1
  C  C43  1  0.39340000  0.44220000  0.61620000  1
  C  C44  1  0.25120000  0.60690000  0.98070000  1
  C  C45  1  0.19410000  0.61130000  0.07330000  1
  C  C46  1  0.88450000  0.69610000  0.44230000  1
  C  C47  1  0.93750000  0.71710000  0.40890000  1
  C  C48  1  0.90760000  0.76260000  0.39440000  1
  C  C49  1  0.91540000  0.64880000  0.45880000  1
  C  C50  1  0.82360000  0.78890000  0.41330000  1
  C  C51  1  0.80290000  0.72130000  0.46050000  1
  C  C52  1  0.42190000  0.89760000  0.45440000  1
  C  C53  1  0.77220000  0.76710000  0.44790000  1
  C  C54  1  0.50960000  0.88380000  0.44220000  1
  C  C55  1  0.73190000  0.51930000  0.60690000  1
  C  C56  1  0.76740000  0.42670000  0.61130000  1
  C  C57  1  0.02290000  0.80390000  0.05770000  1
  C  C58  1  0.06350000  0.78290000  0.09110000  1
  C  C59  1  0.06460000  0.73740000  0.10560000  1
  C  C60  1  0.02300000  0.85120000  0.04120000  1
  C  C61  1  0.02580000  0.71110000  0.08670000  1
  C  C62  1  0.98470000  0.77870000  0.03950000  1
  C  C63  1  0.77390000  0.60240000  0.04560000  1
  C  C64  1  0.98720000  0.73290000  0.05210000  1
  C  C65  1  0.83560000  0.61620000  0.05780000  1
  C  C66  1  0.85810000  0.98070000  0.89310000  1
  C  C67  1  0.80540000  0.07330000  0.88870000  1
  C  C68  1  0.17320000  0.80390000  0.44230000  1
  C  C69  1  0.15360000  0.78290000  0.40890000  1
  C  C70  1  0.19800000  0.73740000  0.39440000  1
  C  C71  1  0.12580000  0.85120000  0.45880000  1
  C  C72  1  0.26310000  0.71110000  0.41330000  1
  C  C73  1  0.23660000  0.77870000  0.46050000  1
  C  C74  1  0.62370000  0.60240000  0.45440000  1
  C  C75  1  0.27990000  0.73290000  0.44790000  1
  C  C76  1  0.54820000  0.61620000  0.44220000  1
  C  C77  1  0.16120000  0.98070000  0.60690000  1
  C  C78  1  0.12130000  0.07330000  0.61130000  1
  C  C79  1  0.41940000  0.69610000  0.05770000  1
  C  C80  1  0.34540000  0.71710000  0.09110000  1
  C  C81  1  0.32980000  0.76260000  0.10560000  1
  C  C82  1  0.43580000  0.64880000  0.04120000  1
  C  C83  1  0.38750000  0.78890000  0.08670000  1
  C  C84  1  0.47580000  0.72130000  0.03950000  1
  C  C85  1  0.68050000  0.89760000  0.04560000  1
  C  C86  1  0.46070000  0.76710000  0.05210000  1
  C  C87  1  0.60660000  0.88380000  0.05780000  1
  C  C88  1  0.74880000  0.51930000  0.89310000  1
  C  C89  1  0.80590000  0.42670000  0.88870000  1
  C  C90  1  0.11550000  0.05770000  0.80390000  1
  C  C91  1  0.06250000  0.09110000  0.78290000  1
  C  C92  1  0.09240000  0.10560000  0.73740000  1
  C  C93  1  0.08460000  0.04120000  0.85120000  1
  C  C94  1  0.17640000  0.08670000  0.71110000  1
  C  C95  1  0.19710000  0.03950000  0.77870000  1
  C  C96  1  0.57810000  0.04560000  0.60240000  1
  C  C97  1  0.22780000  0.05210000  0.73290000  1
  C  C98  1  0.49040000  0.05780000  0.61620000  1
  C  C99  1  0.26810000  0.89310000  0.98070000  1
  C  C100  1  0.23260000  0.88870000  0.07330000  1
  C  C101  1  0.97710000  0.44230000  0.69610000  1
  C  C102  1  0.93650000  0.40890000  0.71710000  1
  C  C103  1  0.93540000  0.39440000  0.76260000  1
  C  C104  1  0.97700000  0.45880000  0.64880000  1
  C  C105  1  0.97420000  0.41330000  0.78890000  1
  C  C106  1  0.01530000  0.46050000  0.72130000  1
  C  C107  1  0.22610000  0.45440000  0.89760000  1
  C  C108  1  0.01280000  0.44790000  0.76710000  1
  C  C109  1  0.16440000  0.44220000  0.88380000  1
  C  C110  1  0.14190000  0.60690000  0.51930000  1
  C  C111  1  0.19460000  0.61130000  0.42670000  1
  C  C112  1  0.17320000  0.94230000  0.30390000  1
  C  C113  1  0.15360000  0.90890000  0.28290000  1
  C  C114  1  0.19800000  0.89440000  0.23740000  1
  C  C115  1  0.12580000  0.95880000  0.35120000  1
  C  C116  1  0.26310000  0.91330000  0.21110000  1
  C  C117  1  0.23660000  0.96050000  0.27870000  1
  C  C118  1  0.62370000  0.95440000  0.10240000  1
  C  C119  1  0.27990000  0.94790000  0.23290000  1
  C  C120  1  0.54820000  0.94220000  0.11620000  1
  C  C121  1  0.16120000  0.10690000  0.48070000  1
  C  C122  1  0.12130000  0.11130000  0.57330000  1
  C  C123  1  0.41940000  0.55770000  0.19610000  1
  C  C124  1  0.34540000  0.59110000  0.21710000  1
  C  C125  1  0.32980000  0.60560000  0.26260000  1
  C  C126  1  0.43580000  0.54120000  0.14880000  1
  C  C127  1  0.38750000  0.58670000  0.28890000  1
  C  C128  1  0.47580000  0.53950000  0.22130000  1
  C  C129  1  0.68050000  0.54560000  0.39760000  1
  C  C130  1  0.46070000  0.55210000  0.26710000  1
  C  C131  1  0.60660000  0.55780000  0.38380000  1
  C  C132  1  0.74880000  0.39310000  0.01930000  1
  C  C133  1  0.80590000  0.38870000  0.92670000  1
  C  C134  1  0.11550000  0.30390000  0.55770000  1
  C  C135  1  0.06250000  0.28290000  0.59110000  1
  C  C136  1  0.09240000  0.23740000  0.60560000  1
  C  C137  1  0.08460000  0.35120000  0.54120000  1
  C  C138  1  0.17640000  0.21110000  0.58670000  1
  C  C139  1  0.19710000  0.27870000  0.53950000  1
  C  C140  1  0.57810000  0.10240000  0.54560000  1
  C  C141  1  0.22780000  0.23290000  0.55210000  1
  C  C142  1  0.49040000  0.11620000  0.55780000  1
  C  C143  1  0.26810000  0.48070000  0.39310000  1
  C  C144  1  0.23260000  0.57330000  0.38870000  1
  C  C145  1  0.97710000  0.19610000  0.94230000  1
  C  C146  1  0.93650000  0.21710000  0.90890000  1
  C  C147  1  0.93540000  0.26260000  0.89440000  1
  C  C148  1  0.97700000  0.14880000  0.95880000  1
  C  C149  1  0.97420000  0.28890000  0.91330000  1
  C  C150  1  0.01530000  0.22130000  0.96050000  1
  C  C151  1  0.22610000  0.39760000  0.95440000  1
  C  C152  1  0.01280000  0.26710000  0.94790000  1
  C  C153  1  0.16440000  0.38380000  0.94220000  1
  C  C154  1  0.14190000  0.01930000  0.10690000  1
  C  C155  1  0.19460000  0.92670000  0.11130000  1
  C  C156  1  0.82680000  0.19610000  0.55770000  1
  C  C157  1  0.84640000  0.21710000  0.59110000  1
  C  C158  1  0.80200000  0.26260000  0.60560000  1
  C  C159  1  0.87420000  0.14880000  0.54120000  1
  C  C160  1  0.73690000  0.28890000  0.58670000  1
  C  C161  1  0.76340000  0.22130000  0.53950000  1
  C  C162  1  0.37630000  0.39760000  0.54560000  1
  C  C163  1  0.72010000  0.26710000  0.55210000  1
  C  C164  1  0.45180000  0.38380000  0.55780000  1
  C  C165  1  0.83880000  0.01930000  0.39310000  1
  C  C166  1  0.87870000  0.92670000  0.38870000  1
  C  C167  1  0.58060000  0.30390000  0.94230000  1
  C  C168  1  0.65460000  0.28290000  0.90890000  1
  C  C169  1  0.67020000  0.23740000  0.89440000  1
  C  C170  1  0.56420000  0.35120000  0.95880000  1
  C  C171  1  0.61250000  0.21110000  0.91330000  1
  C  C172  1  0.52420000  0.27870000  0.96050000  1
  C  C173  1  0.31950000  0.10240000  0.95440000  1
  C  C174  1  0.53930000  0.23290000  0.94790000  1
  C  C175  1  0.39340000  0.11620000  0.94220000  1
  C  C176  1  0.25120000  0.48070000  0.10690000  1
  C  C177  1  0.19410000  0.57330000  0.11130000  1
  C  C178  1  0.88450000  0.94230000  0.19610000  1
  C  C179  1  0.93750000  0.90890000  0.21710000  1
  C  C180  1  0.90760000  0.89440000  0.26260000  1
  C  C181  1  0.91540000  0.95880000  0.14880000  1
  C  C182  1  0.82360000  0.91330000  0.28890000  1
  C  C183  1  0.80290000  0.96050000  0.22130000  1
  C  C184  1  0.42190000  0.95440000  0.39760000  1
  C  C185  1  0.77220000  0.94790000  0.26710000  1
  C  C186  1  0.50960000  0.94220000  0.38380000  1
  C  C187  1  0.73190000  0.10690000  0.01930000  1
  C  C188  1  0.76740000  0.11130000  0.92670000  1
  C  C189  1  0.02290000  0.55770000  0.30390000  1
  C  C190  1  0.06350000  0.59110000  0.28290000  1
  C  C191  1  0.06460000  0.60560000  0.23740000  1
  C  C192  1  0.02300000  0.54120000  0.35120000  1
  C  C193  1  0.02580000  0.58670000  0.21110000  1
  C  C194  1  0.98470000  0.53950000  0.27870000  1
  C  C195  1  0.77390000  0.54560000  0.10240000  1
  C  C196  1  0.98720000  0.55210000  0.23290000  1
  C  C197  1  0.83560000  0.55780000  0.11620000  1
  C  C198  1  0.85810000  0.39310000  0.48070000  1
  C  C199  1  0.80540000  0.38870000  0.57330000  1
  C  C200  1  0.23490000  0.05170000  0.94830000  1
  C  C201  1  0.30990000  0.06630000  0.93370000  1
  C  C202  1  0.45500000  0.09580000  0.90420000  1
  C  C203  1  0.23490000  0.44830000  0.55170000  1
  C  C204  1  0.30990000  0.43370000  0.56630000  1
  C  C205  1  0.45500000  0.40420000  0.59580000  1
  C  C206  1  0.28660000  0.94830000  0.44830000  1
  C  C207  1  0.37620000  0.93370000  0.43370000  1
  C  C208  1  0.55080000  0.90420000  0.40420000  1
  C  C209  1  0.68320000  0.55170000  0.05170000  1
  C  C210  1  0.74360000  0.56630000  0.06630000  1
  C  C211  1  0.85920000  0.59580000  0.09580000  1
  C  C212  1  0.76510000  0.55170000  0.44830000  1
  C  C213  1  0.69010000  0.56630000  0.43370000  1
  C  C214  1  0.54500000  0.59580000  0.40420000  1
  C  C215  1  0.76510000  0.94830000  0.05170000  1
  C  C216  1  0.69010000  0.93370000  0.06630000  1
  C  C217  1  0.54500000  0.90420000  0.09580000  1
  C  C218  1  0.71340000  0.05170000  0.55170000  1
  C  C219  1  0.62380000  0.06630000  0.56630000  1
  C  C220  1  0.44920000  0.09580000  0.59580000  1
  C  C221  1  0.31680000  0.44830000  0.94830000  1
  C  C222  1  0.25640000  0.43370000  0.93370000  1
  C  C223  1  0.14080000  0.40420000  0.90420000  1
  C  C224  1  0.00000000  0.89500000  0.60500000  1
  C  C225  1  0.50000000  0.60500000  0.89500000  1
  C  C226  1  0.89500000  0.60500000  0.60500000  1
  C  C227  1  0.10500000  0.89500000  0.89500000  1
  C  C228  1  1.00000000  0.10500000  0.39500000  1
  C  C229  1  0.50000000  0.39500000  0.10500000  1
  C  C230  1  0.10500000  0.39500000  0.39500000  1
  C  C231  1  0.89500000  0.10500000  0.10500000  1
  H  H232  1  0.88978000  0.10407000  0.70053000  1
  H  H233  1  0.81595000  0.12831000  0.77587000  1
  H  H234  1  0.74854000  0.01767000  0.70723000  1
  H  H235  1  0.37051000  0.02216000  0.88124000  1
  H  H236  1  0.67929000  0.03739000  0.78357000  1
  H  H237  1  0.49867000  0.04066000  0.86158000  1
  H  H238  1  0.69438000  0.39593000  0.79947000  1
  H  H239  1  0.72013000  0.37169000  0.72413000  1
  H  H240  1  0.47344000  0.48233000  0.79277000  1
  H  H241  1  0.27391000  0.47784000  0.61876000  1
  H  H242  1  0.50025000  0.46261000  0.71643000  1
  H  H243  1  0.40091000  0.45934000  0.63842000  1
  H  H244  1  0.99385000  0.70053000  0.39593000  1
  H  H245  1  0.94426000  0.77587000  0.37169000  1
  H  H246  1  0.76621000  0.70723000  0.48233000  1
  H  H247  1  0.39267000  0.88124000  0.47784000  1
  H  H248  1  0.71668000  0.78357000  0.46261000  1
  H  H249  1  0.53933000  0.86158000  0.45934000  1
  H  H250  1  0.09031000  0.79947000  0.10407000  1
  H  H251  1  0.09182000  0.72413000  0.12831000  1
  H  H252  1  0.95577000  0.79277000  0.01767000  1
  H  H253  1  0.75175000  0.61876000  0.02216000  1
  H  H254  1  0.96286000  0.71643000  0.03739000  1
  H  H255  1  0.86025000  0.63842000  0.04066000  1
  H  H256  1  0.11022000  0.79947000  0.39593000  1
  H  H257  1  0.18405000  0.72413000  0.37169000  1
  H  H258  1  0.25146000  0.79277000  0.48233000  1
  H  H259  1  0.62949000  0.61876000  0.47784000  1
  H  H260  1  0.32071000  0.71643000  0.46261000  1
  H  H261  1  0.50133000  0.63842000  0.45934000  1
  H  H262  1  0.30562000  0.70053000  0.10407000  1
  H  H263  1  0.27987000  0.77587000  0.12831000  1
  H  H264  1  0.52656000  0.70723000  0.01767000  1
  H  H265  1  0.72609000  0.88124000  0.02216000  1
  H  H266  1  0.49975000  0.78357000  0.03739000  1
  H  H267  1  0.59909000  0.86158000  0.04066000  1
  H  H268  1  0.00615000  0.10407000  0.79947000  1
  H  H269  1  0.05574000  0.12831000  0.72413000  1
  H  H270  1  0.23379000  0.01767000  0.79277000  1
  H  H271  1  0.60733000  0.02216000  0.61876000  1
  H  H272  1  0.28332000  0.03739000  0.71643000  1
  H  H273  1  0.46067000  0.04066000  0.63842000  1
  H  H274  1  0.90969000  0.39593000  0.70053000  1
  H  H275  1  0.90818000  0.37169000  0.77587000  1
  H  H276  1  0.04423000  0.48233000  0.70723000  1
  H  H277  1  0.24825000  0.47784000  0.88124000  1
  H  H278  1  0.03714000  0.46261000  0.78357000  1
  H  H279  1  0.13975000  0.45934000  0.86158000  1
  H  H280  1  0.11022000  0.89593000  0.29947000  1
  H  H281  1  0.18405000  0.87169000  0.22413000  1
  H  H282  1  0.25146000  0.98233000  0.29277000  1
  H  H283  1  0.62949000  0.97784000  0.11876000  1
  H  H284  1  0.32071000  0.96261000  0.21643000  1
  H  H285  1  0.50133000  0.95934000  0.13842000  1
  H  H286  1  0.30562000  0.60407000  0.20053000  1
  H  H287  1  0.27987000  0.62831000  0.27587000  1
  H  H288  1  0.52656000  0.51767000  0.20723000  1
  H  H289  1  0.72609000  0.52216000  0.38124000  1
  H  H290  1  0.49975000  0.53739000  0.28357000  1
  H  H291  1  0.59909000  0.54066000  0.36158000  1
  H  H292  1  0.00615000  0.29947000  0.60407000  1
  H  H293  1  0.05574000  0.22413000  0.62831000  1
  H  H294  1  0.23379000  0.29277000  0.51767000  1
  H  H295  1  0.60733000  0.11876000  0.52216000  1
  H  H296  1  0.28332000  0.21643000  0.53739000  1
  H  H297  1  0.46067000  0.13842000  0.54066000  1
  H  H298  1  0.90969000  0.20053000  0.89593000  1
  H  H299  1  0.90818000  0.27587000  0.87169000  1
  H  H300  1  0.04423000  0.20723000  0.98233000  1
  H  H301  1  0.24825000  0.38124000  0.97784000  1
  H  H302  1  0.03714000  0.28357000  0.96261000  1
  H  H303  1  0.13975000  0.36158000  0.95934000  1
  H  H304  1  0.88978000  0.20053000  0.60407000  1
  H  H305  1  0.81595000  0.27587000  0.62831000  1
  H  H306  1  0.74854000  0.20723000  0.51767000  1
  H  H307  1  0.37051000  0.38124000  0.52216000  1
  H  H308  1  0.67929000  0.28357000  0.53739000  1
  H  H309  1  0.49867000  0.36158000  0.54066000  1
  H  H310  1  0.69438000  0.29947000  0.89593000  1
  H  H311  1  0.72013000  0.22413000  0.87169000  1
  H  H312  1  0.47344000  0.29277000  0.98233000  1
  H  H313  1  0.27391000  0.11876000  0.97784000  1
  H  H314  1  0.50025000  0.21643000  0.96261000  1
  H  H315  1  0.40091000  0.13842000  0.95934000  1
  H  H316  1  0.99385000  0.89593000  0.20053000  1
  H  H317  1  0.94426000  0.87169000  0.27587000  1
  H  H318  1  0.76621000  0.98233000  0.20723000  1
  H  H319  1  0.39267000  0.97784000  0.38124000  1
  H  H320  1  0.71668000  0.96261000  0.28357000  1
  H  H321  1  0.53933000  0.95934000  0.36158000  1
  H  H322  1  0.09031000  0.60407000  0.29947000  1
  H  H323  1  0.09182000  0.62831000  0.22413000  1
  H  H324  1  0.95577000  0.51767000  0.29277000  1
  H  H325  1  0.75175000  0.52216000  0.11876000  1
  H  H326  1  0.96286000  0.53739000  0.21643000  1
  H  H327  1  0.86025000  0.54066000  0.13842000  1
  H  H328  1  0.00000000  0.87208000  0.62792000  1
  H  H329  1  0.50000000  0.62792000  0.87208000  1
  H  H330  1  0.87208000  0.62792000  0.62792000  1
  H  H331  1  0.12792000  0.87208000  0.87208000  1
  H  H332  1  0.00000000  0.12792000  0.37208000  1
  H  H333  1  0.50000000  0.37208000  0.12792000  1
  H  H334  1  0.12792000  0.37208000  0.37208000  1
  H  H335  1  0.87208000  0.12792000  0.12792000  1
  O  O336  1  0.85194000  0.01106000  0.63226000  1
  O  O337  1  0.93259000  0.06031000  0.62691000  1
  O  O338  1  0.00860000  0.98370000  0.56870000  1
  O  O339  1  0.22430000  0.01923000  0.92777000  1
  O  O340  1  0.61400000  0.08550000  0.85650000  1
  O  O341  1  0.91220000  0.92140000  0.61260000  1
  O  O342  1  0.81950000  0.92640000  0.55900000  1
  O  O343  1  0.89910000  0.90230000  0.46430000  1
  O  O344  1  0.75760000  0.05950000  0.87010000  1
  O  O345  1  0.49526000  0.48894000  0.86774000  1
  O  O346  1  0.61981000  0.43969000  0.87309000  1
  O  O347  1  0.56100000  0.51630000  0.93130000  1
  O  O348  1  0.17130000  0.48077000  0.57223000  1
  O  O349  1  0.55600000  0.41450000  0.64350000  1
  O  O350  1  0.44620000  0.57860000  0.88740000  1
  O  O351  1  0.30490000  0.57360000  0.94100000  1
  O  O352  1  0.26570000  0.59770000  0.03570000  1
  O  O353  1  0.68720000  0.44050000  0.62990000  1
  O  O354  1  0.86300000  0.63226000  0.48894000  1
  O  O355  1  0.99290000  0.62691000  0.43969000  1
  O  O356  1  0.99230000  0.56870000  0.51630000  1
  O  O357  1  0.24353000  0.92777000  0.48077000  1
  O  O358  1  0.69950000  0.85650000  0.41450000  1
  O  O359  1  0.83360000  0.61260000  0.57860000  1
  O  O360  1  0.74590000  0.55900000  0.57360000  1
  O  O361  1  0.80140000  0.46430000  0.59770000  1
  O  O362  1  0.81710000  0.87010000  0.44050000  1
  O  O363  1  0.98420000  0.86774000  0.01106000  1
  O  O364  1  0.05950000  0.87309000  0.06031000  1
  O  O365  1  0.07730000  0.93130000  0.98370000  1
  O  O366  1  0.65207000  0.57223000  0.01923000  1
  O  O367  1  0.97050000  0.64350000  0.08550000  1
  O  O368  1  0.02480000  0.88740000  0.92140000  1
  O  O369  1  0.87850000  0.94100000  0.92640000  1
  O  O370  1  0.86340000  0.03570000  0.90230000  1
  O  O371  1  0.12770000  0.62990000  0.05950000  1
  O  O372  1  0.14806000  0.86774000  0.48894000  1
  O  O373  1  0.06741000  0.87309000  0.43969000  1
  O  O374  1  0.99140000  0.93130000  0.51630000  1
  O  O375  1  0.77570000  0.57223000  0.48077000  1
  O  O376  1  0.38600000  0.64350000  0.41450000  1
  O  O377  1  0.08780000  0.88740000  0.57860000  1
  O  O378  1  0.18050000  0.94100000  0.57360000  1
  O  O379  1  0.10090000  0.03570000  0.59770000  1
  O  O380  1  0.24240000  0.62990000  0.44050000  1
  O  O381  1  0.50474000  0.63226000  0.01106000  1
  O  O382  1  0.38019000  0.62691000  0.06031000  1
  O  O383  1  0.43900000  0.56870000  0.98370000  1
  O  O384  1  0.82870000  0.92777000  0.01923000  1
  O  O385  1  0.44400000  0.85650000  0.08550000  1
  O  O386  1  0.55380000  0.61260000  0.92140000  1
  O  O387  1  0.69510000  0.55900000  0.92640000  1
  O  O388  1  0.73430000  0.46430000  0.90230000  1
  O  O389  1  0.31280000  0.87010000  0.05950000  1
  O  O390  1  0.13700000  0.01106000  0.86774000  1
  O  O391  1  0.00710000  0.06031000  0.87309000  1
  O  O392  1  0.00770000  0.98370000  0.93130000  1
  O  O393  1  0.75647000  0.01923000  0.57223000  1
  O  O394  1  0.30050000  0.08550000  0.64350000  1
  O  O395  1  0.16640000  0.92140000  0.88740000  1
  O  O396  1  0.25410000  0.92640000  0.94100000  1
  O  O397  1  0.19860000  0.90230000  0.03570000  1
  O  O398  1  0.18290000  0.05950000  0.62990000  1
  O  O399  1  0.01580000  0.48894000  0.63226000  1
  O  O400  1  0.94050000  0.43969000  0.62691000  1
  O  O401  1  0.92270000  0.51630000  0.56870000  1
  O  O402  1  0.34793000  0.48077000  0.92777000  1
  O  O403  1  0.02950000  0.41450000  0.85650000  1
  O  O404  1  0.97520000  0.57860000  0.61260000  1
  O  O405  1  0.12150000  0.57360000  0.55900000  1
  O  O406  1  0.13660000  0.59770000  0.46430000  1
  O  O407  1  0.87230000  0.44050000  0.87010000  1
  O  O408  1  0.14806000  0.98894000  0.36774000  1
  O  O409  1  0.06741000  0.93969000  0.37309000  1
  O  O410  1  0.99140000  0.01630000  0.43130000  1
  O  O411  1  0.77570000  0.98077000  0.07223000  1
  O  O412  1  0.38600000  0.91450000  0.14350000  1
  O  O413  1  0.08780000  0.07860000  0.38740000  1
  O  O414  1  0.18050000  0.07360000  0.44100000  1
  O  O415  1  0.10090000  0.09770000  0.53570000  1
  O  O416  1  0.24240000  0.94050000  0.12990000  1
  O  O417  1  0.50474000  0.51106000  0.13226000  1
  O  O418  1  0.38019000  0.56031000  0.12691000  1
  O  O419  1  0.43900000  0.48370000  0.06870000  1
  O  O420  1  0.82870000  0.51923000  0.42777000  1
  O  O421  1  0.44400000  0.58550000  0.35650000  1
  O  O422  1  0.55380000  0.42140000  0.11260000  1
  O  O423  1  0.69510000  0.42640000  0.05900000  1
  O  O424  1  0.73430000  0.40230000  0.96430000  1
  O  O425  1  0.31280000  0.55950000  0.37010000  1
  O  O426  1  0.13700000  0.36774000  0.51106000  1
  O  O427  1  0.00710000  0.37309000  0.56031000  1
  O  O428  1  0.00770000  0.43130000  0.48370000  1
  O  O429  1  0.75647000  0.07223000  0.51923000  1
  O  O430  1  0.30050000  0.14350000  0.58550000  1
  O  O431  1  0.16640000  0.38740000  0.42140000  1
  O  O432  1  0.25410000  0.44100000  0.42640000  1
  O  O433  1  0.19860000  0.53570000  0.40230000  1
  O  O434  1  0.18290000  0.12990000  0.55950000  1
  O  O435  1  0.01580000  0.13226000  0.98894000  1
  O  O436  1  0.94050000  0.12691000  0.93969000  1
  O  O437  1  0.92270000  0.06870000  0.01630000  1
  O  O438  1  0.34793000  0.42777000  0.98077000  1
  O  O439  1  0.02950000  0.35650000  0.91450000  1
  O  O440  1  0.97520000  0.11260000  0.07860000  1
  O  O441  1  0.12150000  0.05900000  0.07360000  1
  O  O442  1  0.13660000  0.96430000  0.09770000  1
  O  O443  1  0.87230000  0.37010000  0.94050000  1
  O  O444  1  0.85194000  0.13226000  0.51106000  1
  O  O445  1  0.93259000  0.12691000  0.56031000  1
  O  O446  1  0.00860000  0.06870000  0.48370000  1
  O  O447  1  0.22430000  0.42777000  0.51923000  1
  O  O448  1  0.61400000  0.35650000  0.58550000  1
  O  O449  1  0.91220000  0.11260000  0.42140000  1
  O  O450  1  0.81950000  0.05900000  0.42640000  1
  O  O451  1  0.89910000  0.96430000  0.40230000  1
  O  O452  1  0.75760000  0.37010000  0.55950000  1
  O  O453  1  0.49526000  0.36774000  0.98894000  1
  O  O454  1  0.61981000  0.37309000  0.93969000  1
  O  O455  1  0.56100000  0.43130000  0.01630000  1
  O  O456  1  0.17130000  0.07223000  0.98077000  1
  O  O457  1  0.55600000  0.14350000  0.91450000  1
  O  O458  1  0.44620000  0.38740000  0.07860000  1
  O  O459  1  0.30490000  0.44100000  0.07360000  1
  O  O460  1  0.26570000  0.53570000  0.09770000  1
  O  O461  1  0.68720000  0.12990000  0.94050000  1
  O  O462  1  0.86300000  0.98894000  0.13226000  1
  O  O463  1  0.99290000  0.93969000  0.12691000  1
  O  O464  1  0.99230000  0.01630000  0.06870000  1
  O  O465  1  0.24353000  0.98077000  0.42777000  1
  O  O466  1  0.69950000  0.91450000  0.35650000  1
  O  O467  1  0.83360000  0.07860000  0.11260000  1
  O  O468  1  0.74590000  0.07360000  0.05900000  1
  O  O469  1  0.80140000  0.09770000  0.96430000  1
  O  O470  1  0.81710000  0.94050000  0.37010000  1
  O  O471  1  0.98420000  0.51106000  0.36774000  1
  O  O472  1  0.05950000  0.56031000  0.37309000  1
  O  O473  1  0.07730000  0.48370000  0.43130000  1
  O  O474  1  0.65207000  0.51923000  0.07223000  1
  O  O475  1  0.97050000  0.58550000  0.14350000  1
  O  O476  1  0.02480000  0.42140000  0.38740000  1
  O  O477  1  0.87850000  0.42640000  0.44100000  1
  O  O478  1  0.86340000  0.40230000  0.53570000  1
  O  O479  1  0.12770000  0.55950000  0.12990000  1
  O  O480  1  0.12000000  0.00710000  0.50710000  1
  O  O481  1  0.89830000  0.04660000  0.54660000  1
  O  O482  1  0.63420000  0.49290000  0.99290000  1
  O  O483  1  0.49150000  0.45340000  0.95340000  1
  O  O484  1  0.12710000  0.50710000  0.49290000  1
  O  O485  1  0.94490000  0.54660000  0.45340000  1
  O  O486  1  0.12710000  0.99290000  0.00710000  1
  O  O487  1  0.94490000  0.95340000  0.04660000  1
  O  O488  1  0.88000000  0.99290000  0.49290000  1
  O  O489  1  0.10170000  0.95340000  0.45340000  1
  O  O490  1  0.36580000  0.50710000  0.00710000  1
  O  O491  1  0.50850000  0.54660000  0.04660000  1
  O  O492  1  0.87290000  0.00710000  0.99290000  1
  O  O493  1  0.05510000  0.04660000  0.95340000  1
  O  O494  1  0.87290000  0.49290000  0.50710000  1
  O  O495  1  0.05510000  0.45340000  0.54660000  1
  O  O496  1  0.68520000  0.14280000  0.85720000  1
  O  O497  1  0.68520000  0.35720000  0.64280000  1
  O  O498  1  0.82800000  0.85720000  0.35720000  1
  O  O499  1  0.04240000  0.64280000  0.14280000  1
  O  O500  1  0.31480000  0.64280000  0.35720000  1
  O  O501  1  0.31480000  0.85720000  0.14280000  1
  O  O502  1  0.17200000  0.14280000  0.64280000  1
  O  O503  1  0.95760000  0.35720000  0.85720000  1
  Zr  Zr504  1  0.88834000  0.97767000  0.56383000  1
  Zr  Zr505  1  0.42984000  0.52233000  0.93617000  1
  Zr  Zr506  1  0.86601000  0.56383000  0.52233000  1
  Zr  Zr507  1  0.95217000  0.93617000  0.97767000  1
  Zr  Zr508  1  0.11166000  0.93617000  0.52233000  1
  Zr  Zr509  1  0.57016000  0.56383000  0.97767000  1
  Zr  Zr510  1  0.13399000  0.97767000  0.93617000  1
  Zr  Zr511  1  0.04783000  0.52233000  0.56383000  1
  Zr  Zr512  1  0.11166000  0.02233000  0.43617000  1
  Zr  Zr513  1  0.57016000  0.47767000  0.06383000  1
  Zr  Zr514  1  0.13399000  0.43617000  0.47767000  1
  Zr  Zr515  1  0.04783000  0.06383000  0.02233000  1
  Zr  Zr516  1  0.88834000  0.06383000  0.47767000  1
  Zr  Zr517  1  0.42984000  0.43617000  0.02233000  1
  Zr  Zr518  1  0.86601000  0.02233000  0.06383000  1
  Zr  Zr519  1  0.95217000  0.47767000  0.43617000  1
  Zr  Zr520  1  0.01366000  0.05392000  0.55392000  1
  Zr  Zr521  1  0.62150000  0.44608000  0.94608000  1
  Zr  Zr522  1  0.06758000  0.55392000  0.44608000  1
  Zr  Zr523  1  0.06758000  0.94608000  0.05392000  1
  Zr  Zr524  1  0.98634000  0.94608000  0.44608000  1
  Zr  Zr525  1  0.37850000  0.55392000  0.05392000  1
  Zr  Zr526  1  0.93242000  0.05392000  0.94608000  1
  Zr  Zr527  1  0.93242000  0.44608000  0.55392000  1
