# generated using pymatgen
data_Zr3H26C40(NO8)2
_symmetry_space_group_name_H-M   'P 1'
_cell_length_a   18.09980000
_cell_length_b   18.47700000
_cell_length_c   19.94203629
_cell_angle_alpha   117.59816390
_cell_angle_beta   92.61941205
_cell_angle_gamma   90.00000000
_symmetry_Int_Tables_number   1
_chemical_formula_structural   Zr3H26C40(NO8)2
_chemical_formula_sum   'Zr6 H52 C80 N4 O32'
_cell_volume   5902.51730338
_cell_formula_units_Z   2
loop_
 _symmetry_equiv_pos_site_id
 _symmetry_equiv_pos_as_xyz
  1  'x, y, z'
loop_
 _atom_site_type_symbol
 _atom_site_label
 _atom_site_symmetry_multiplicity
 _atom_site_fract_x
 _atom_site_fract_y
 _atom_site_fract_z
 _atom_site_occupancy
  C  C0  1  0.37780000  0.52200000  0.81200000  1
  C  C1  1  0.26720000  0.42930000  0.22480000  1
  C  C2  1  0.33500000  0.47580000  0.23820000  1
  C  C3  1  0.37870000  0.47510000  0.17900000  1
  C  C4  1  0.25170000  0.47890000  0.35700000  1
  C  C5  1  0.33270000  0.51710000  0.74640000  1
  C  C6  1  0.22970000  0.56190000  0.69160000  1
  C  C7  1  0.26750000  0.56500000  0.75360000  1
  C  C8  1  0.23060000  0.43410000  0.28160000  1
  C  C9  1  0.24630000  0.49330000  0.48780000  1
  C  C10  1  0.13280000  0.50630000  0.54820000  1
  C  C11  1  0.35860000  0.52380000  0.31300000  1
  C  C12  1  0.21170000  0.49040000  0.42380000  1
  C  C13  1  0.35500000  0.46980000  0.67320000  1
  C  C14  1  0.21110000  0.50110000  0.54860000  1
  C  C15  1  0.13390000  0.48700000  0.41880000  1
  C  C16  1  0.09690000  0.49580000  0.48100000  1
  C  C17  1  0.31720000  0.52500000  0.37160000  1
  C  C18  1  0.24980000  0.51150000  0.61860000  1
  C  C19  1  0.31420000  0.46400000  0.60880000  1
  C  C20  1  0.62220000  0.71000000  0.18800000  1
  C  C21  1  0.73280000  0.20450000  0.77520000  1
  C  C22  1  0.66500000  0.23760000  0.76180000  1
  C  C23  1  0.62130000  0.29610000  0.82100000  1
  C  C24  1  0.74830000  0.12190000  0.64300000  1
  C  C25  1  0.66730000  0.77070000  0.25360000  1
  C  C26  1  0.77030000  0.87030000  0.30840000  1
  C  C27  1  0.73250000  0.81140000  0.24640000  1
  C  C28  1  0.76940000  0.15250000  0.71840000  1
  C  C29  1  0.75370000  0.00550000  0.51220000  1
  C  C30  1  0.86720000  0.95810000  0.45180000  1
  C  C31  1  0.64140000  0.21080000  0.68700000  1
  C  C32  1  0.78830000  0.06660000  0.57620000  1
  C  C33  1  0.64500000  0.79660000  0.32680000  1
  C  C34  1  0.78890000  0.95250000  0.45140000  1
  C  C35  1  0.86610000  0.06820000  0.58120000  1
  C  C36  1  0.90310000  0.01480000  0.51900000  1
  C  C37  1  0.68280000  0.15340000  0.62840000  1
  C  C38  1  0.75020000  0.89290000  0.38140000  1
  C  C39  1  0.68580000  0.85520000  0.39120000  1
  C  C40  1  0.62220000  0.47800000  0.18800000  1
  C  C41  1  0.73280000  0.57070000  0.77520000  1
  C  C42  1  0.66500000  0.52420000  0.76180000  1
  C  C43  1  0.62130000  0.52490000  0.82100000  1
  C  C44  1  0.74830000  0.52110000  0.64300000  1
  C  C45  1  0.66730000  0.48290000  0.25360000  1
  C  C46  1  0.77030000  0.43810000  0.30840000  1
  C  C47  1  0.73250000  0.43500000  0.24640000  1
  C  C48  1  0.76940000  0.56590000  0.71840000  1
  C  C49  1  0.75370000  0.50670000  0.51220000  1
  C  C50  1  0.86720000  0.49370000  0.45180000  1
  C  C51  1  0.64140000  0.47620000  0.68700000  1
  C  C52  1  0.78830000  0.50960000  0.57620000  1
  C  C53  1  0.64500000  0.53020000  0.32680000  1
  C  C54  1  0.78890000  0.49890000  0.45140000  1
  C  C55  1  0.86610000  0.51300000  0.58120000  1
  C  C56  1  0.90310000  0.50420000  0.51900000  1
  C  C57  1  0.68280000  0.47500000  0.62840000  1
  C  C58  1  0.75020000  0.48850000  0.38140000  1
  C  C59  1  0.68580000  0.53600000  0.39120000  1
  C  C60  1  0.37780000  0.29000000  0.81200000  1
  C  C61  1  0.26720000  0.79550000  0.22480000  1
  C  C62  1  0.33500000  0.76240000  0.23820000  1
  C  C63  1  0.37870000  0.70390000  0.17900000  1
  C  C64  1  0.25170000  0.87810000  0.35700000  1
  C  C65  1  0.33270000  0.22930000  0.74640000  1
  C  C66  1  0.22970000  0.12970000  0.69160000  1
  C  C67  1  0.26750000  0.18860000  0.75360000  1
  C  C68  1  0.23060000  0.84750000  0.28160000  1
  C  C69  1  0.24630000  0.99450000  0.48780000  1
  C  C70  1  0.13280000  0.04190000  0.54820000  1
  C  C71  1  0.35860000  0.78920000  0.31300000  1
  C  C72  1  0.21170000  0.93340000  0.42380000  1
  C  C73  1  0.35500000  0.20340000  0.67320000  1
  C  C74  1  0.21110000  0.04750000  0.54860000  1
  C  C75  1  0.13390000  0.93180000  0.41880000  1
  C  C76  1  0.09690000  0.98520000  0.48100000  1
  C  C77  1  0.31720000  0.84660000  0.37160000  1
  C  C78  1  0.24980000  0.10710000  0.61860000  1
  C  C79  1  0.31420000  0.14480000  0.60880000  1
  H  H80  1  0.24516000  0.38798000  0.16432000  1
  H  H81  1  0.17958000  0.60178000  0.69894000  1
  H  H82  1  0.24675000  0.60645000  0.81206000  1
  H  H83  1  0.17581000  0.39904000  0.27058000  1
  H  H84  1  0.30904000  0.48898000  0.49170000  1
  H  H85  1  0.10262000  0.51853000  0.60124000  1
  H  H86  1  0.41163000  0.56248000  0.32732000  1
  H  H87  1  0.40806000  0.43381000  0.66346000  1
  H  H88  1  0.10273000  0.47715000  0.36414000  1
  H  H89  1  0.33867000  0.56522000  0.43252000  1
  H  H90  1  0.33288000  0.42160000  0.54966000  1
  H  H91  1  0.27713000  0.37295000  0.92850000  1
  H  H92  1  0.39873000  0.25055000  0.93190000  1
  H  H93  1  0.75484000  0.22366000  0.83568000  1
  H  H94  1  0.82042000  0.90284000  0.30106000  1
  H  H95  1  0.75325000  0.79439000  0.18794000  1
  H  H96  1  0.82419000  0.12846000  0.72942000  1
  H  H97  1  0.69096000  0.99728000  0.50830000  1
  H  H98  1  0.89738000  0.91729000  0.39876000  1
  H  H99  1  0.58837000  0.23516000  0.67268000  1
  H  H100  1  0.59194000  0.77035000  0.33654000  1
  H  H101  1  0.89727000  0.11301000  0.63586000  1
  H  H102  1  0.66133000  0.13270000  0.56748000  1
  H  H103  1  0.66712000  0.87194000  0.45034000  1
  H  H104  1  0.72287000  0.44445000  0.07150000  1
  H  H105  1  0.60127000  0.31865000  0.06810000  1
  H  H106  1  0.75484000  0.61202000  0.83568000  1
  H  H107  1  0.82042000  0.39822000  0.30106000  1
  H  H108  1  0.75325000  0.39355000  0.18794000  1
  H  H109  1  0.82419000  0.60096000  0.72942000  1
  H  H110  1  0.69096000  0.51102000  0.50830000  1
  H  H111  1  0.89738000  0.48147000  0.39876000  1
  H  H112  1  0.58837000  0.43752000  0.67268000  1
  H  H113  1  0.59194000  0.56619000  0.33654000  1
  H  H114  1  0.89727000  0.52285000  0.63586000  1
  H  H115  1  0.66133000  0.43478000  0.56748000  1
  H  H116  1  0.66712000  0.57840000  0.45034000  1
  H  H117  1  0.72287000  0.62705000  0.07150000  1
  H  H118  1  0.60127000  0.74945000  0.06810000  1
  H  H119  1  0.24516000  0.77634000  0.16432000  1
  H  H120  1  0.17958000  0.09716000  0.69894000  1
  H  H121  1  0.24675000  0.20561000  0.81206000  1
  H  H122  1  0.17581000  0.87154000  0.27058000  1
  H  H123  1  0.30904000  0.00272000  0.49170000  1
  H  H124  1  0.10262000  0.08271000  0.60124000  1
  H  H125  1  0.41163000  0.76484000  0.32732000  1
  H  H126  1  0.40806000  0.22965000  0.66346000  1
  H  H127  1  0.10273000  0.88699000  0.36414000  1
  H  H128  1  0.33867000  0.86730000  0.43252000  1
  H  H129  1  0.33288000  0.12806000  0.54966000  1
  H  H130  1  0.27713000  0.55555000  0.92850000  1
  H  H131  1  0.39873000  0.68135000  0.93190000  1
  N  N132  1  0.01650000  0.49700000  0.47160000  1
  N  N133  1  0.98350000  0.02540000  0.52840000  1
  N  N134  1  0.98350000  0.50300000  0.52840000  1
  N  N135  1  0.01650000  0.97460000  0.47160000  1
  O  O136  1  0.42650000  0.52566000  0.19872000  1
  O  O137  1  0.42500000  0.46880000  0.79460000  1
  O  O138  1  0.49350000  0.44738000  0.06576000  1
  O  O139  1  0.36430000  0.56849000  0.87858000  1
  O  O140  1  0.28030000  0.40440000  0.99140000  1
  O  O141  1  0.40190000  0.28200000  0.99480000  1
  O  O142  1  0.36310000  0.42298000  0.10756000  1
  O  O143  1  0.57350000  0.32694000  0.80128000  1
  O  O144  1  0.57500000  0.67420000  0.20540000  1
  O  O145  1  0.50650000  0.38162000  0.93424000  1
  O  O146  1  0.63570000  0.68991000  0.12142000  1
  O  O147  1  0.71970000  0.41300000  0.00860000  1
  O  O148  1  0.59810000  0.28720000  0.00520000  1
  O  O149  1  0.63690000  0.31542000  0.89244000  1
  O  O150  1  0.57350000  0.47434000  0.80128000  1
  O  O151  1  0.57500000  0.53120000  0.20540000  1
  O  O152  1  0.50650000  0.55262000  0.93424000  1
  O  O153  1  0.63570000  0.43151000  0.12142000  1
  O  O154  1  0.71970000  0.59560000  0.00860000  1
  O  O155  1  0.59810000  0.71800000  0.00520000  1
  O  O156  1  0.63690000  0.57702000  0.89244000  1
  O  O157  1  0.42650000  0.67306000  0.19872000  1
  O  O158  1  0.42500000  0.32580000  0.79460000  1
  O  O159  1  0.49350000  0.61838000  0.06576000  1
  O  O160  1  0.36430000  0.31009000  0.87858000  1
  O  O161  1  0.28030000  0.58700000  0.99140000  1
  O  O162  1  0.40190000  0.71280000  0.99480000  1
  O  O163  1  0.36310000  0.68458000  0.10756000  1
  O  O164  1  0.40170000  0.52860000  0.05720000  1
  O  O165  1  0.39960000  0.46520000  0.93040000  1
  O  O166  1  0.59830000  0.47140000  0.94280000  1
  O  O167  1  0.60040000  0.53480000  0.06960000  1
  Zr  Zr168  1  0.40178000  0.40177000  0.99536000  1
  Zr  Zr169  1  0.59822000  0.40641000  0.00464000  1
  Zr  Zr170  1  0.59822000  0.59823000  0.00464000  1
  Zr  Zr171  1  0.40178000  0.59359000  0.99536000  1
  Zr  Zr172  1  0.49933000  0.43103000  0.86206000  1
  Zr  Zr173  1  0.50067000  0.56897000  0.13794000  1
