# generated using pymatgen
data_Zr3H35C46NO16
_symmetry_space_group_name_H-M   'P 1'
_cell_length_a   19.44030000
_cell_length_b   24.58340000
_cell_length_c   25.27951718
_cell_angle_alpha   119.09319482
_cell_angle_beta   90.00000000
_cell_angle_gamma   90.00000000
_symmetry_Int_Tables_number   1
_chemical_formula_structural   Zr3H35C46NO16
_chemical_formula_sum   'Zr12 H140 C184 N4 O64'
_cell_volume   10557.00254283
_cell_formula_units_Z   4
loop_
 _symmetry_equiv_pos_site_id
 _symmetry_equiv_pos_as_xyz
  1  'x, y, z'
loop_
 _atom_site_type_symbol
 _atom_site_label
 _atom_site_symmetry_multiplicity
 _atom_site_fract_x
 _atom_site_fract_y
 _atom_site_fract_z
 _atom_site_occupancy
  C  C0  1  0.94880000  0.62570000  0.30140000  1
  C  C1  1  0.95110000  0.65680000  0.36340000  1
  C  C2  1  0.95790000  0.74480000  0.55900000  1
  C  C3  1  0.99830000  0.79354000  0.68708000  1
  C  C4  1  0.96070000  0.81430000  0.73800000  1
  C  C5  1  0.99700000  0.72780000  0.75180000  1
  C  C6  1  0.99880000  0.69510000  0.78860000  1
  C  C7  1  0.02670000  0.73820000  0.66640000  1
  C  C8  1  0.02550000  0.70480000  0.69780000  1
  C  C9  1  0.96300000  0.78270000  0.77040000  1
  C  C10  1  0.04370000  0.65080000  0.77880000  1
  C  C11  1  0.04770000  0.62200000  0.81420000  1
  C  C12  1  0.00330000  0.63669000  0.85958000  1
  C  C13  1  0.95970000  0.68240000  0.87220000  1
  C  C14  1  0.95690000  0.71230000  0.83680000  1
  C  C15  1  0.00300000  0.60478000  0.89736000  1
  C  C16  1  0.74930000  0.29150000  0.94660000  1
  C  C17  1  0.70480000  0.25250000  0.95300000  1
  C  C18  1  0.95660000  0.71250000  0.49560000  1
  C  C19  1  0.44880000  0.87430000  0.69860000  1
  C  C20  1  0.45110000  0.84320000  0.63660000  1
  C  C21  1  0.45790000  0.75520000  0.44100000  1
  C  C22  1  0.49830000  0.70646000  0.31292000  1
  C  C23  1  0.46070000  0.68570000  0.26200000  1
  C  C24  1  0.49700000  0.77220000  0.24820000  1
  C  C25  1  0.49880000  0.80490000  0.21140000  1
  C  C26  1  0.52670000  0.76180000  0.33360000  1
  C  C27  1  0.52550000  0.79520000  0.30220000  1
  C  C28  1  0.46300000  0.71730000  0.22960000  1
  C  C29  1  0.54370000  0.84920000  0.22120000  1
  C  C30  1  0.54770000  0.87800000  0.18580000  1
  C  C31  1  0.50330000  0.86331000  0.14042000  1
  C  C32  1  0.45970000  0.81760000  0.12780000  1
  C  C33  1  0.45690000  0.78770000  0.16320000  1
  C  C34  1  0.50300000  0.89522000  0.10264000  1
  C  C35  1  0.24930000  0.20850000  0.05340000  1
  C  C36  1  0.20480000  0.24750000  0.04700000  1
  C  C37  1  0.45660000  0.78750000  0.50440000  1
  C  C38  1  0.55120000  0.82430000  0.69860000  1
  C  C39  1  0.54890000  0.79340000  0.63660000  1
  C  C40  1  0.54210000  0.68580000  0.44100000  1
  C  C41  1  0.50170000  0.60646000  0.31292000  1
  C  C42  1  0.53930000  0.57630000  0.26200000  1
  C  C43  1  0.50300000  0.47600000  0.24820000  1
  C  C44  1  0.50120000  0.40650000  0.21140000  1
  C  C45  1  0.47330000  0.57180000  0.33360000  1
  C  C46  1  0.47450000  0.50700000  0.30220000  1
  C  C47  1  0.53700000  0.51230000  0.22960000  1
  C  C48  1  0.45630000  0.37200000  0.22120000  1
  C  C49  1  0.45230000  0.30780000  0.18580000  1
  C  C50  1  0.49670000  0.27711000  0.14042000  1
  C  C51  1  0.54030000  0.31020000  0.12780000  1
  C  C52  1  0.54310000  0.37550000  0.16320000  1
  C  C53  1  0.49700000  0.20742000  0.10264000  1
  C  C54  1  0.75070000  0.84490000  0.05340000  1
  C  C55  1  0.79520000  0.79950000  0.04700000  1
  C  C56  1  0.54340000  0.71690000  0.50440000  1
  C  C57  1  0.05120000  0.67570000  0.30140000  1
  C  C58  1  0.04890000  0.70660000  0.36340000  1
  C  C59  1  0.04210000  0.81420000  0.55900000  1
  C  C60  1  0.00170000  0.89354000  0.68708000  1
  C  C61  1  0.03930000  0.92370000  0.73800000  1
  C  C62  1  0.00300000  0.02400000  0.75180000  1
  C  C63  1  0.00120000  0.09350000  0.78860000  1
  C  C64  1  0.97330000  0.92820000  0.66640000  1
  C  C65  1  0.97450000  0.99300000  0.69780000  1
  C  C66  1  0.03700000  0.98770000  0.77040000  1
  C  C67  1  0.95630000  0.12800000  0.77880000  1
  C  C68  1  0.95230000  0.19220000  0.81420000  1
  C  C69  1  0.99670000  0.22289000  0.85958000  1
  C  C70  1  0.04030000  0.18980000  0.87220000  1
  C  C71  1  0.04310000  0.12450000  0.83680000  1
  C  C72  1  0.99700000  0.29258000  0.89736000  1
  C  C73  1  0.25070000  0.65510000  0.94660000  1
  C  C74  1  0.29520000  0.70050000  0.95300000  1
  C  C75  1  0.04340000  0.78310000  0.49560000  1
  C  C76  1  0.05120000  0.37430000  0.69860000  1
  C  C77  1  0.04890000  0.34320000  0.63660000  1
  C  C78  1  0.04210000  0.25520000  0.44100000  1
  C  C79  1  0.00170000  0.20646000  0.31292000  1
  C  C80  1  0.03930000  0.18570000  0.26200000  1
  C  C81  1  0.00300000  0.27220000  0.24820000  1
  C  C82  1  0.00120000  0.30490000  0.21140000  1
  C  C83  1  0.97330000  0.26180000  0.33360000  1
  C  C84  1  0.97450000  0.29520000  0.30220000  1
  C  C85  1  0.03700000  0.21730000  0.22960000  1
  C  C86  1  0.95630000  0.34920000  0.22120000  1
  C  C87  1  0.95230000  0.37800000  0.18580000  1
  C  C88  1  0.99670000  0.36331000  0.14042000  1
  C  C89  1  0.04030000  0.31760000  0.12780000  1
  C  C90  1  0.04310000  0.28770000  0.16320000  1
  C  C91  1  0.99700000  0.39522000  0.10264000  1
  C  C92  1  0.25070000  0.70850000  0.05340000  1
  C  C93  1  0.29520000  0.74750000  0.04700000  1
  C  C94  1  0.04340000  0.28750000  0.50440000  1
  C  C95  1  0.55120000  0.12570000  0.30140000  1
  C  C96  1  0.54890000  0.15680000  0.36340000  1
  C  C97  1  0.54210000  0.24480000  0.55900000  1
  C  C98  1  0.50170000  0.29354000  0.68708000  1
  C  C99  1  0.53930000  0.31430000  0.73800000  1
  C  C100  1  0.50300000  0.22780000  0.75180000  1
  C  C101  1  0.50120000  0.19510000  0.78860000  1
  C  C102  1  0.47330000  0.23820000  0.66640000  1
  C  C103  1  0.47450000  0.20480000  0.69780000  1
  C  C104  1  0.53700000  0.28270000  0.77040000  1
  C  C105  1  0.45630000  0.15080000  0.77880000  1
  C  C106  1  0.45230000  0.12200000  0.81420000  1
  C  C107  1  0.49670000  0.13669000  0.85958000  1
  C  C108  1  0.54030000  0.18240000  0.87220000  1
  C  C109  1  0.54310000  0.21230000  0.83680000  1
  C  C110  1  0.49700000  0.10478000  0.89736000  1
  C  C111  1  0.75070000  0.79150000  0.94660000  1
  C  C112  1  0.79520000  0.75250000  0.95300000  1
  C  C113  1  0.54340000  0.21250000  0.49560000  1
  C  C114  1  0.44880000  0.17570000  0.30140000  1
  C  C115  1  0.45110000  0.20660000  0.36340000  1
  C  C116  1  0.45790000  0.31420000  0.55900000  1
  C  C117  1  0.49830000  0.39354000  0.68708000  1
  C  C118  1  0.46070000  0.42370000  0.73800000  1
  C  C119  1  0.49700000  0.52400000  0.75180000  1
  C  C120  1  0.49880000  0.59350000  0.78860000  1
  C  C121  1  0.52670000  0.42820000  0.66640000  1
  C  C122  1  0.52550000  0.49300000  0.69780000  1
  C  C123  1  0.46300000  0.48770000  0.77040000  1
  C  C124  1  0.54370000  0.62800000  0.77880000  1
  C  C125  1  0.54770000  0.69220000  0.81420000  1
  C  C126  1  0.50330000  0.72289000  0.85958000  1
  C  C127  1  0.45970000  0.68980000  0.87220000  1
  C  C128  1  0.45690000  0.62450000  0.83680000  1
  C  C129  1  0.50300000  0.79258000  0.89736000  1
  C  C130  1  0.24930000  0.15510000  0.94660000  1
  C  C131  1  0.20480000  0.20050000  0.95300000  1
  C  C132  1  0.45660000  0.28310000  0.49560000  1
  C  C133  1  0.94880000  0.32430000  0.69860000  1
  C  C134  1  0.95110000  0.29340000  0.63660000  1
  C  C135  1  0.95790000  0.18580000  0.44100000  1
  C  C136  1  0.99830000  0.10646000  0.31292000  1
  C  C137  1  0.96070000  0.07630000  0.26200000  1
  C  C138  1  0.99700000  0.97600000  0.24820000  1
  C  C139  1  0.99880000  0.90650000  0.21140000  1
  C  C140  1  0.02670000  0.07180000  0.33360000  1
  C  C141  1  0.02550000  0.00700000  0.30220000  1
  C  C142  1  0.96300000  0.01230000  0.22960000  1
  C  C143  1  0.04370000  0.87200000  0.22120000  1
  C  C144  1  0.04770000  0.80780000  0.18580000  1
  C  C145  1  0.00330000  0.77711000  0.14042000  1
  C  C146  1  0.95970000  0.81020000  0.12780000  1
  C  C147  1  0.95690000  0.87550000  0.16320000  1
  C  C148  1  0.00300000  0.70742000  0.10264000  1
  C  C149  1  0.74930000  0.34490000  0.05340000  1
  C  C150  1  0.70480000  0.29950000  0.04700000  1
  C  C151  1  0.95660000  0.21690000  0.50440000  1
  C  C152  1  1.00000000  0.60080000  0.20160000  1
  C  C153  1  1.00000000  0.63470000  0.26940000  1
  C  C154  1  1.00000000  0.69780000  0.39560000  1
  C  C155  1  1.00000000  0.73200000  0.46400000  1
  C  C156  1  1.00000000  0.79510000  0.59020000  1
  C  C157  1  0.50000000  0.89920000  0.79840000  1
  C  C158  1  0.50000000  0.86530000  0.73060000  1
  C  C159  1  0.50000000  0.80220000  0.60440000  1
  C  C160  1  0.50000000  0.76800000  0.53600000  1
  C  C161  1  0.50000000  0.70490000  0.40980000  1
  C  C162  1  1.00000000  0.39920000  0.79840000  1
  C  C163  1  1.00000000  0.36530000  0.73060000  1
  C  C164  1  1.00000000  0.30220000  0.60440000  1
  C  C165  1  1.00000000  0.26800000  0.53600000  1
  C  C166  1  1.00000000  0.20490000  0.40980000  1
  C  C167  1  0.50000000  0.10080000  0.20160000  1
  C  C168  1  0.50000000  0.13470000  0.26940000  1
  C  C169  1  0.50000000  0.19780000  0.39560000  1
  C  C170  1  0.50000000  0.23200000  0.46400000  1
  C  C171  1  0.50000000  0.29510000  0.59020000  1
  C  C172  1  0.82180000  0.38580000  0.00000000  1
  C  C173  1  0.77530000  0.34300000  0.00000000  1
  C  C174  1  0.67690000  0.25010000  0.00000000  1
  C  C175  1  0.32180000  0.11420000  0.00000000  1
  C  C176  1  0.27530000  0.15700000  0.00000000  1
  C  C177  1  0.17690000  0.24990000  1.00000000  1
  C  C178  1  0.67820000  0.88580000  0.00000000  1
  C  C179  1  0.72470000  0.84300000  0.00000000  1
  C  C180  1  0.82310000  0.75010000  0.00000000  1
  C  C181  1  0.17820000  0.61420000  0.00000000  1
  C  C182  1  0.22470000  0.65700000  0.00000000  1
  C  C183  1  0.32310000  0.74990000  0.00000000  1
  H  H184  1  0.91191000  0.59813000  0.28084000  1
  H  H185  1  0.91591000  0.64878000  0.38470000  1
  H  H186  1  0.92903000  0.73145000  0.58084000  1
  H  H187  1  0.84370000  0.61666000  0.07412000  1
  H  H188  1  0.93297000  0.85052000  0.75156000  1
  H  H189  1  0.80427000  0.53337000  0.10812000  1
  H  H190  1  0.04913000  0.72027000  0.62816000  1
  H  H191  1  0.04563000  0.66454000  0.67988000  1
  H  H192  1  0.93941000  0.80015000  0.80806000  1
  H  H193  1  0.07483000  0.63810000  0.74598000  1
  H  H194  1  0.08216000  0.59154000  0.80606000  1
  H  H195  1  0.92961000  0.69536000  0.90576000  1
  H  H196  1  0.92493000  0.74522000  0.84710000  1
  H  H197  1  0.76261000  0.28456000  0.90756000  1
  H  H198  1  0.69023000  0.21922000  0.91532000  1
  H  H199  1  0.92664000  0.67809000  0.47458000  1
  H  H200  1  0.41191000  0.90187000  0.71916000  1
  H  H201  1  0.41591000  0.85122000  0.61530000  1
  H  H202  1  0.42903000  0.76855000  0.41916000  1
  H  H203  1  0.34370000  0.88334000  0.92588000  1
  H  H204  1  0.43297000  0.64948000  0.24844000  1
  H  H205  1  0.30427000  0.96663000  0.89188000  1
  H  H206  1  0.54913000  0.77973000  0.37184000  1
  H  H207  1  0.54563000  0.83546000  0.32012000  1
  H  H208  1  0.43941000  0.69985000  0.19194000  1
  H  H209  1  0.57483000  0.86190000  0.25402000  1
  H  H210  1  0.58216000  0.90846000  0.19394000  1
  H  H211  1  0.42961000  0.80464000  0.09424000  1
  H  H212  1  0.42493000  0.75478000  0.15290000  1
  H  H213  1  0.26261000  0.21544000  0.09244000  1
  H  H214  1  0.19023000  0.28078000  0.08468000  1
  H  H215  1  0.42664000  0.82191000  0.52542000  1
  H  H216  1  0.58809000  0.81729000  0.71916000  1
  H  H217  1  0.58409000  0.76408000  0.61530000  1
  H  H218  1  0.57097000  0.65061000  0.41916000  1
  H  H219  1  0.65630000  0.04254000  0.92588000  1
  H  H220  1  0.56703000  0.59896000  0.24844000  1
  H  H221  1  0.69573000  0.92525000  0.89188000  1
  H  H222  1  0.45087000  0.59211000  0.37184000  1
  H  H223  1  0.45437000  0.48466000  0.32012000  1
  H  H224  1  0.56059000  0.49209000  0.19194000  1
  H  H225  1  0.42517000  0.39212000  0.25402000  1
  H  H226  1  0.41784000  0.28548000  0.19394000  1
  H  H227  1  0.57039000  0.28960000  0.09424000  1
  H  H228  1  0.57507000  0.39812000  0.15290000  1
  H  H229  1  0.73739000  0.87700000  0.09244000  1
  H  H230  1  0.80977000  0.80390000  0.08468000  1
  H  H231  1  0.57336000  0.70351000  0.52542000  1
  H  H232  1  0.08809000  0.68271000  0.28084000  1
  H  H233  1  0.08409000  0.73592000  0.38470000  1
  H  H234  1  0.07097000  0.84939000  0.58084000  1
  H  H235  1  0.15630000  0.45746000  0.07412000  1
  H  H236  1  0.06703000  0.90104000  0.75156000  1
  H  H237  1  0.19573000  0.57475000  0.10812000  1
  H  H238  1  0.95087000  0.90789000  0.62816000  1
  H  H239  1  0.95437000  0.01534000  0.67988000  1
  H  H240  1  0.06059000  0.00791000  0.80806000  1
  H  H241  1  0.92517000  0.10788000  0.74598000  1
  H  H242  1  0.91784000  0.21452000  0.80606000  1
  H  H243  1  0.07039000  0.21040000  0.90576000  1
  H  H244  1  0.07507000  0.10188000  0.84710000  1
  H  H245  1  0.23739000  0.62300000  0.90756000  1
  H  H246  1  0.30977000  0.69610000  0.91532000  1
  H  H247  1  0.07336000  0.79649000  0.47458000  1
  H  H248  1  0.08809000  0.40187000  0.71916000  1
  H  H249  1  0.08409000  0.35122000  0.61530000  1
  H  H250  1  0.07097000  0.26855000  0.41916000  1
  H  H251  1  0.15630000  0.38334000  0.92588000  1
  H  H252  1  0.06703000  0.14948000  0.24844000  1
  H  H253  1  0.19573000  0.46663000  0.89188000  1
  H  H254  1  0.95087000  0.27973000  0.37184000  1
  H  H255  1  0.95437000  0.33546000  0.32012000  1
  H  H256  1  0.06059000  0.19985000  0.19194000  1
  H  H257  1  0.92517000  0.36190000  0.25402000  1
  H  H258  1  0.91784000  0.40846000  0.19394000  1
  H  H259  1  0.07039000  0.30464000  0.09424000  1
  H  H260  1  0.07507000  0.25478000  0.15290000  1
  H  H261  1  0.23739000  0.71544000  0.09244000  1
  H  H262  1  0.30977000  0.78078000  0.08468000  1
  H  H263  1  0.07336000  0.32191000  0.52542000  1
  H  H264  1  0.58809000  0.09813000  0.28084000  1
  H  H265  1  0.58409000  0.14878000  0.38470000  1
  H  H266  1  0.57097000  0.23145000  0.58084000  1
  H  H267  1  0.65630000  0.11666000  0.07412000  1
  H  H268  1  0.56703000  0.35052000  0.75156000  1
  H  H269  1  0.69573000  0.03337000  0.10812000  1
  H  H270  1  0.45087000  0.22027000  0.62816000  1
  H  H271  1  0.45437000  0.16454000  0.67988000  1
  H  H272  1  0.56059000  0.30015000  0.80806000  1
  H  H273  1  0.42517000  0.13810000  0.74598000  1
  H  H274  1  0.41784000  0.09154000  0.80606000  1
  H  H275  1  0.57039000  0.19536000  0.90576000  1
  H  H276  1  0.57507000  0.24522000  0.84710000  1
  H  H277  1  0.73739000  0.78456000  0.90756000  1
  H  H278  1  0.80977000  0.71922000  0.91532000  1
  H  H279  1  0.57336000  0.17809000  0.47458000  1
  H  H280  1  0.41191000  0.18271000  0.28084000  1
  H  H281  1  0.41591000  0.23592000  0.38470000  1
  H  H282  1  0.42903000  0.34939000  0.58084000  1
  H  H283  1  0.34370000  0.95746000  0.07412000  1
  H  H284  1  0.43297000  0.40104000  0.75156000  1
  H  H285  1  0.30427000  0.07475000  0.10812000  1
  H  H286  1  0.54913000  0.40789000  0.62816000  1
  H  H287  1  0.54563000  0.51534000  0.67988000  1
  H  H288  1  0.43941000  0.50791000  0.80806000  1
  H  H289  1  0.57483000  0.60788000  0.74598000  1
  H  H290  1  0.58216000  0.71452000  0.80606000  1
  H  H291  1  0.42961000  0.71040000  0.90576000  1
  H  H292  1  0.42493000  0.60188000  0.84710000  1
  H  H293  1  0.26261000  0.12300000  0.90756000  1
  H  H294  1  0.19023000  0.19610000  0.91532000  1
  H  H295  1  0.42664000  0.29649000  0.47458000  1
  H  H296  1  0.91191000  0.31729000  0.71916000  1
  H  H297  1  0.91591000  0.26408000  0.61530000  1
  H  H298  1  0.92903000  0.15061000  0.41916000  1
  H  H299  1  0.84370000  0.54254000  0.92588000  1
  H  H300  1  0.93297000  0.09896000  0.24844000  1
  H  H301  1  0.80427000  0.42525000  0.89188000  1
  H  H302  1  0.04913000  0.09211000  0.37184000  1
  H  H303  1  0.04563000  0.98466000  0.32012000  1
  H  H304  1  0.93941000  0.99209000  0.19194000  1
  H  H305  1  0.07483000  0.89212000  0.25402000  1
  H  H306  1  0.08216000  0.78548000  0.19394000  1
  H  H307  1  0.92961000  0.78960000  0.09424000  1
  H  H308  1  0.92493000  0.89812000  0.15290000  1
  H  H309  1  0.76261000  0.37700000  0.09244000  1
  H  H310  1  0.69023000  0.30390000  0.08468000  1
  H  H311  1  0.92664000  0.20351000  0.52542000  1
  H  H312  1  0.05442000  0.60857000  0.00000000  1
  H  H313  1  0.64522000  0.22068000  0.00000000  1
  H  H314  1  0.91837000  0.50628000  0.00000000  1
  H  H315  1  0.55442000  0.89143000  0.00000000  1
  H  H316  1  0.14522000  0.27932000  0.00000000  1
  H  H317  1  0.41837000  0.99372000  0.00000000  1
  H  H318  1  0.44558000  0.10857000  0.00000000  1
  H  H319  1  0.85478000  0.72068000  0.00000000  1
  H  H320  1  0.58163000  0.00628000  0.00000000  1
  H  H321  1  0.94558000  0.39143000  0.00000000  1
  H  H322  1  0.35478000  0.77932000  0.00000000  1
  H  H323  1  0.08163000  0.49372000  0.00000000  1
  N  N324  1  1.00000000  0.82750000  0.65500000  1
  N  N325  1  0.50000000  0.67250000  0.34500000  1
  N  N326  1  1.00000000  0.17250000  0.34500000  1
  N  N327  1  0.50000000  0.32750000  0.65500000  1
  O  O328  1  0.03670000  0.49730000  0.07720000  1
  O  O329  1  0.95270000  0.56147000  0.17592000  1
  O  O330  1  0.04950000  0.56430000  0.88458000  1
  O  O331  1  0.83720000  0.43623000  0.05586000  1
  O  O332  1  0.83580000  0.62820000  0.05340000  1
  O  O333  1  0.95840000  0.61976000  0.93772000  1
  O  O334  1  0.83480000  0.55897000  0.12014000  1
  O  O335  1  0.53670000  0.00270000  0.92280000  1
  O  O336  1  0.45270000  0.93853000  0.82408000  1
  O  O337  1  0.54950000  0.93570000  0.11542000  1
  O  O338  1  0.33720000  0.06377000  0.94414000  1
  O  O339  1  0.33580000  0.87180000  0.94660000  1
  O  O340  1  0.45840000  0.88024000  0.06228000  1
  O  O341  1  0.33480000  0.94103000  0.87986000  1
  O  O342  1  0.46330000  0.92010000  0.92280000  1
  O  O343  1  0.54730000  0.88555000  0.82408000  1
  O  O344  1  0.45050000  0.17972000  0.11542000  1
  O  O345  1  0.66280000  0.88037000  0.94414000  1
  O  O346  1  0.66420000  0.07480000  0.94660000  1
  O  O347  1  0.54160000  0.18204000  0.06228000  1
  O  O348  1  0.66520000  0.93883000  0.87986000  1
  O  O349  1  0.96330000  0.57990000  0.07720000  1
  O  O350  1  0.04730000  0.61445000  0.17592000  1
  O  O351  1  0.95050000  0.32028000  0.88458000  1
  O  O352  1  0.16280000  0.61963000  0.05586000  1
  O  O353  1  0.16420000  0.42520000  0.05340000  1
  O  O354  1  0.04160000  0.31796000  0.93772000  1
  O  O355  1  0.16520000  0.56117000  0.12014000  1
  O  O356  1  0.96330000  0.50270000  0.92280000  1
  O  O357  1  0.04730000  0.43853000  0.82408000  1
  O  O358  1  0.95050000  0.43570000  0.11542000  1
  O  O359  1  0.16280000  0.56377000  0.94414000  1
  O  O360  1  0.16420000  0.37180000  0.94660000  1
  O  O361  1  0.04160000  0.38024000  0.06228000  1
  O  O362  1  0.16520000  0.44103000  0.87986000  1
  O  O363  1  0.46330000  0.99730000  0.07720000  1
  O  O364  1  0.54730000  0.06147000  0.17592000  1
  O  O365  1  0.45050000  0.06430000  0.88458000  1
  O  O366  1  0.66280000  0.93623000  0.05586000  1
  O  O367  1  0.66420000  0.12820000  0.05340000  1
  O  O368  1  0.54160000  0.11976000  0.93772000  1
  O  O369  1  0.66520000  0.05897000  0.12014000  1
  O  O370  1  0.53670000  0.07990000  0.07720000  1
  O  O371  1  0.45270000  0.11445000  0.17592000  1
  O  O372  1  0.54950000  0.82028000  0.88458000  1
  O  O373  1  0.33720000  0.11963000  0.05586000  1
  O  O374  1  0.33580000  0.92520000  0.05340000  1
  O  O375  1  0.45840000  0.81796000  0.93772000  1
  O  O376  1  0.33480000  0.06117000  0.12014000  1
  O  O377  1  0.03670000  0.42010000  0.92280000  1
  O  O378  1  0.95270000  0.38555000  0.82408000  1
  O  O379  1  0.04950000  0.67972000  0.11542000  1
  O  O380  1  0.83720000  0.38037000  0.94414000  1
  O  O381  1  0.83580000  0.57480000  0.94660000  1
  O  O382  1  0.95840000  0.68204000  0.06228000  1
  O  O383  1  0.83480000  0.43883000  0.87986000  1
  O  O384  1  0.04040000  0.57800000  0.00000000  1
  O  O385  1  0.88740000  0.50290000  0.00000000  1
  O  O386  1  0.54040000  0.92200000  0.00000000  1
  O  O387  1  0.38740000  0.99710000  0.00000000  1
  O  O388  1  0.45960000  0.07800000  0.00000000  1
  O  O389  1  0.61260000  0.00290000  0.00000000  1
  O  O390  1  0.95960000  0.42200000  0.00000000  1
  O  O391  1  0.11260000  0.49710000  0.00000000  1
  Zr  Zr392  1  0.92585000  0.49942000  0.07954000  1
  Zr  Zr393  1  0.42585000  0.00058000  0.92046000  1
  Zr  Zr394  1  0.57415000  0.91988000  0.92046000  1
  Zr  Zr395  1  0.07415000  0.58012000  0.07954000  1
  Zr  Zr396  1  0.07415000  0.50058000  0.92046000  1
  Zr  Zr397  1  0.57415000  0.99942000  0.07954000  1
  Zr  Zr398  1  0.42585000  0.08012000  0.07954000  1
  Zr  Zr399  1  0.92585000  0.41988000  0.92046000  1
  Zr  Zr400  1  0.92979000  0.58356000  0.00000000  1
  Zr  Zr401  1  0.42979000  0.91644000  0.00000000  1
  Zr  Zr402  1  0.57021000  0.08356000  0.00000000  1
  Zr  Zr403  1  0.07021000  0.41644000  0.00000000  1
