# generated using pymatgen
data_Zr12H127(C53O12)4
_symmetry_space_group_name_H-M   'P 1'
_cell_length_a   21.07040000
_cell_length_b   21.07040000
_cell_length_c   40.36720000
_cell_angle_alpha   90.00000000
_cell_angle_beta   90.00000000
_cell_angle_gamma   90.00000000
_symmetry_Int_Tables_number   1
_chemical_formula_structural   Zr12H127(C53O12)4
_chemical_formula_sum   'Zr12 H127 C212 O48'
_cell_volume   17921.49300326
_cell_formula_units_Z   1
loop_
 _symmetry_equiv_pos_site_id
 _symmetry_equiv_pos_as_xyz
  1  'x, y, z'
loop_
 _atom_site_type_symbol
 _atom_site_label
 _atom_site_symmetry_multiplicity
 _atom_site_fract_x
 _atom_site_fract_y
 _atom_site_fract_z
 _atom_site_occupancy
  Zr  Zr0  1  0.50000000  0.50000000  0.43872000  1
  Zr  Zr1  1  0.00000000  0.00000000  0.93872000  1
  Zr  Zr2  1  0.50000000  0.50000000  0.56128000  1
  Zr  Zr3  1  0.00000000  0.00000000  0.06128000  1
  Zr  Zr4  1  0.61791000  0.50000000  0.50000000  1
  Zr  Zr5  1  0.11791000  0.00000000  0.00000000  1
  Zr  Zr6  1  0.38209000  0.50000000  0.50000000  1
  Zr  Zr7  1  0.88209000  0.00000000  0.00000000  1
  Zr  Zr8  1  0.50000000  0.61791000  0.50000000  1
  Zr  Zr9  1  0.00000000  0.11791000  0.00000000  1
  Zr  Zr10  1  0.50000000  0.38209000  0.50000000  1
  Zr  Zr11  1  0.00000000  0.88209000  0.00000000  1
  H  H12  1  0.11090000  0.41770000  0.33620000  1
  H  H13  1  0.18960000  0.56660000  0.29250000  1
  H  H14  1  0.10880000  0.57100000  0.25530000  1
  H  H15  1  0.02890000  0.42370000  0.29970000  1
  H  H16  1  0.91770000  0.38910000  0.83620000  1
  H  H17  1  0.06660000  0.31040000  0.79250000  1
  H  H18  1  0.07100000  0.39120000  0.75530000  1
  H  H19  1  0.92370000  0.47110000  0.79970000  1
  H  H20  1  0.91770000  0.61090000  0.16380000  1
  H  H21  1  0.06660000  0.68960000  0.20750000  1
  H  H22  1  0.07100000  0.60880000  0.24470000  1
  H  H23  1  0.92370000  0.52890000  0.20030000  1
  H  H24  1  0.11090000  0.41770000  0.66380000  1
  H  H25  1  0.18960000  0.56660000  0.70750000  1
  H  H26  1  0.10880000  0.57100000  0.74470000  1
  H  H27  1  0.02890000  0.42370000  0.70030000  1
  H  H28  1  0.61090000  0.91770000  0.16380000  1
  H  H29  1  0.68960000  0.06660000  0.20750000  1
  H  H30  1  0.60880000  0.07100000  0.24470000  1
  H  H31  1  0.52890000  0.92370000  0.20030000  1
  H  H32  1  0.88910000  0.58230000  0.66380000  1
  H  H33  1  0.81040000  0.43340000  0.70750000  1
  H  H34  1  0.89120000  0.42900000  0.74470000  1
  H  H35  1  0.97110000  0.57630000  0.70030000  1
  H  H36  1  0.38910000  0.08230000  0.16380000  1
  H  H37  1  0.31040000  0.93340000  0.20750000  1
  H  H38  1  0.39120000  0.92900000  0.24470000  1
  H  H39  1  0.47110000  0.07630000  0.20030000  1
  H  H40  1  0.58230000  0.11090000  0.66380000  1
  H  H41  1  0.43340000  0.18960000  0.70750000  1
  H  H42  1  0.42900000  0.10880000  0.74470000  1
  H  H43  1  0.57630000  0.02890000  0.70030000  1
  H  H44  1  0.41770000  0.88910000  0.66380000  1
  H  H45  1  0.56660000  0.81040000  0.70750000  1
  H  H46  1  0.42370000  0.97110000  0.70030000  1
  H  H47  1  0.91770000  0.38910000  0.16380000  1
  H  H48  1  0.06660000  0.31040000  0.20750000  1
  H  H49  1  0.07100000  0.39120000  0.24470000  1
  H  H50  1  0.92370000  0.47110000  0.20030000  1
  H  H51  1  0.88910000  0.41770000  0.33620000  1
  H  H52  1  0.81040000  0.56660000  0.29250000  1
  H  H53  1  0.89120000  0.57100000  0.25530000  1
  H  H54  1  0.97110000  0.42370000  0.29970000  1
  H  H55  1  0.38910000  0.91770000  0.83620000  1
  H  H56  1  0.31040000  0.06660000  0.79250000  1
  H  H57  1  0.39120000  0.07100000  0.75530000  1
  H  H58  1  0.47110000  0.92370000  0.79970000  1
  H  H59  1  0.61090000  0.08230000  0.83620000  1
  H  H60  1  0.68960000  0.93340000  0.79250000  1
  H  H61  1  0.60880000  0.92900000  0.75530000  1
  H  H62  1  0.52890000  0.07630000  0.79970000  1
  H  H63  1  0.41770000  0.11090000  0.33620000  1
  H  H64  1  0.56660000  0.18960000  0.29250000  1
  H  H65  1  0.57100000  0.10880000  0.25530000  1
  H  H66  1  0.42370000  0.02890000  0.29970000  1
  H  H67  1  0.91770000  0.61090000  0.83620000  1
  H  H68  1  0.06660000  0.68960000  0.79250000  1
  H  H69  1  0.07100000  0.60880000  0.75530000  1
  H  H70  1  0.92370000  0.52890000  0.79970000  1
  H  H71  1  0.58230000  0.88910000  0.33620000  1
  H  H72  1  0.43340000  0.81040000  0.29250000  1
  H  H73  1  0.42900000  0.89120000  0.25530000  1
  H  H74  1  0.57630000  0.97110000  0.29970000  1
  H  H75  1  0.63990000  0.50000000  0.35500000  1
  H  H76  1  0.71550000  0.50000000  0.31550000  1
  H  H77  1  0.76950000  0.50000000  0.42460000  1
  H  H78  1  0.84950000  0.50000000  0.38540000  1
  H  H79  1  0.13990000  0.00000000  0.85500000  1
  H  H80  1  0.21550000  0.00000000  0.81550000  1
  H  H81  1  0.26950000  0.00000000  0.92460000  1
  H  H82  1  0.34950000  0.00000000  0.88540000  1
  H  H83  1  0.36010000  0.50000000  0.35500000  1
  H  H84  1  0.28450000  0.50000000  0.31550000  1
  H  H85  1  0.23050000  0.50000000  0.42460000  1
  H  H86  1  0.15050000  0.50000000  0.38540000  1
  H  H87  1  0.86010000  0.00000000  0.85500000  1
  H  H88  1  0.78450000  0.00000000  0.81550000  1
  H  H89  1  0.73050000  0.00000000  0.92460000  1
  H  H90  1  0.65050000  0.00000000  0.88540000  1
  H  H91  1  0.50000000  0.63990000  0.35500000  1
  H  H92  1  0.50000000  0.71550000  0.31550000  1
  H  H93  1  0.50000000  0.76950000  0.42460000  1
  H  H94  1  0.50000000  0.84950000  0.38540000  1
  H  H95  1  0.00000000  0.13990000  0.85500000  1
  H  H96  1  0.00000000  0.21550000  0.81550000  1
  H  H97  1  0.00000000  0.26950000  0.92460000  1
  H  H98  1  0.00000000  0.34950000  0.88540000  1
  H  H99  1  0.50000000  0.36010000  0.35500000  1
  H  H100  1  0.50000000  0.28450000  0.31550000  1
  H  H101  1  0.50000000  0.23050000  0.42460000  1
  H  H102  1  0.50000000  0.15050000  0.38540000  1
  H  H103  1  0.00000000  0.86010000  0.85500000  1
  H  H104  1  0.00000000  0.78450000  0.81550000  1
  H  H105  1  0.00000000  0.73050000  0.92460000  1
  H  H106  1  0.00000000  0.65050000  0.88540000  1
  H  H107  1  0.36010000  0.50000000  0.64500000  1
  H  H108  1  0.28450000  0.50000000  0.68450000  1
  H  H109  1  0.23050000  0.50000000  0.57540000  1
  H  H110  1  0.15050000  0.50000000  0.61460000  1
  H  H111  1  0.86010000  0.00000000  0.14500000  1
  H  H112  1  0.78450000  0.00000000  0.18450000  1
  H  H113  1  0.73050000  0.00000000  0.07540000  1
  H  H114  1  0.65050000  0.00000000  0.11460000  1
  H  H115  1  0.63990000  0.50000000  0.64500000  1
  H  H116  1  0.71550000  0.50000000  0.68450000  1
  H  H117  1  0.76950000  0.50000000  0.57540000  1
  H  H118  1  0.84950000  0.50000000  0.61460000  1
  H  H119  1  0.13990000  0.00000000  0.14500000  1
  H  H120  1  0.21550000  0.00000000  0.18450000  1
  H  H121  1  0.26950000  0.00000000  0.07540000  1
  H  H122  1  0.34950000  0.00000000  0.11460000  1
  H  H123  1  0.50000000  0.63990000  0.64500000  1
  H  H124  1  0.50000000  0.71550000  0.68450000  1
  H  H125  1  0.50000000  0.76950000  0.57540000  1
  H  H126  1  0.50000000  0.84950000  0.61460000  1
  H  H127  1  0.00000000  0.13990000  0.14500000  1
  H  H128  1  0.00000000  0.21550000  0.18450000  1
  H  H129  1  0.00000000  0.26950000  0.07540000  1
  H  H130  1  0.00000000  0.34950000  0.11460000  1
  H  H131  1  0.50000000  0.36010000  0.64500000  1
  H  H132  1  0.50000000  0.28450000  0.68450000  1
  H  H133  1  0.50000000  0.23050000  0.57540000  1
  H  H134  1  0.50000000  0.15050000  0.61460000  1
  H  H135  1  0.00000000  0.86010000  0.14500000  1
  H  H136  1  0.00000000  0.78450000  0.18450000  1
  H  H137  1  0.00000000  0.73050000  0.07540000  1
  H  H138  1  0.00000000  0.65050000  0.11460000  1
  C  C139  1  0.10920000  0.45040000  0.32073000  1
  C  C140  1  0.15600000  0.53840000  0.29514000  1
  C  C141  1  0.10750000  0.54070000  0.27199000  1
  C  C142  1  0.06140000  0.45350000  0.29840000  1
  C  C143  1  0.95040000  0.39080000  0.82073000  1
  C  C144  1  0.03840000  0.34400000  0.79514000  1
  C  C145  1  0.04070000  0.39250000  0.77199000  1
  C  C146  1  0.95350000  0.43860000  0.79840000  1
  C  C147  1  0.95040000  0.60920000  0.17927000  1
  C  C148  1  0.03840000  0.65600000  0.20486000  1
  C  C149  1  0.04070000  0.60750000  0.22801000  1
  C  C150  1  0.95350000  0.56140000  0.20160000  1
  C  C151  1  0.10920000  0.45040000  0.67927000  1
  C  C152  1  0.15600000  0.53840000  0.70486000  1
  C  C153  1  0.10750000  0.54070000  0.72801000  1
  C  C154  1  0.06140000  0.45350000  0.70160000  1
  C  C155  1  0.60920000  0.95040000  0.17927000  1
  C  C156  1  0.65600000  0.03840000  0.20486000  1
  C  C157  1  0.60750000  0.04070000  0.22801000  1
  C  C158  1  0.56140000  0.95350000  0.20160000  1
  C  C159  1  0.89080000  0.54960000  0.67927000  1
  C  C160  1  0.84400000  0.46160000  0.70486000  1
  C  C161  1  0.89250000  0.45930000  0.72801000  1
  C  C162  1  0.93860000  0.54650000  0.70160000  1
  C  C163  1  0.39080000  0.04960000  0.17927000  1
  C  C164  1  0.34400000  0.96160000  0.20486000  1
  C  C165  1  0.39250000  0.95930000  0.22801000  1
  C  C166  1  0.43860000  0.04650000  0.20160000  1
  C  C167  1  0.54960000  0.10920000  0.67927000  1
  C  C168  1  0.46160000  0.15600000  0.70486000  1
  C  C169  1  0.45930000  0.10750000  0.72801000  1
  C  C170  1  0.54650000  0.06140000  0.70160000  1
  C  C171  1  0.45040000  0.89080000  0.67927000  1
  C  C172  1  0.53840000  0.84400000  0.70486000  1
  C  C173  1  0.54070000  0.89250000  0.72801000  1
  C  C174  1  0.45350000  0.93860000  0.70160000  1
  C  C175  1  0.95040000  0.39080000  0.17927000  1
  C  C176  1  0.03840000  0.34400000  0.20486000  1
  C  C177  1  0.04070000  0.39250000  0.22801000  1
  C  C178  1  0.95350000  0.43860000  0.20160000  1
  C  C179  1  0.89080000  0.45040000  0.32073000  1
  C  C180  1  0.84400000  0.53840000  0.29514000  1
  C  C181  1  0.89250000  0.54070000  0.27199000  1
  C  C182  1  0.93860000  0.45350000  0.29840000  1
  C  C183  1  0.39080000  0.95040000  0.82073000  1
  C  C184  1  0.34400000  0.03840000  0.79514000  1
  C  C185  1  0.39250000  0.04070000  0.77199000  1
  C  C186  1  0.43860000  0.95350000  0.79840000  1
  C  C187  1  0.60920000  0.04960000  0.82073000  1
  C  C188  1  0.65600000  0.96160000  0.79514000  1
  C  C189  1  0.60750000  0.95930000  0.77199000  1
  C  C190  1  0.56140000  0.04650000  0.79840000  1
  C  C191  1  0.45040000  0.10920000  0.32073000  1
  C  C192  1  0.53840000  0.15600000  0.29514000  1
  C  C193  1  0.54070000  0.10750000  0.27199000  1
  C  C194  1  0.45350000  0.06140000  0.29840000  1
  C  C195  1  0.95040000  0.60920000  0.82073000  1
  C  C196  1  0.03840000  0.65600000  0.79514000  1
  C  C197  1  0.04070000  0.60750000  0.77199000  1
  C  C198  1  0.95350000  0.56140000  0.79840000  1
  C  C199  1  0.54960000  0.89080000  0.32073000  1
  C  C200  1  0.46160000  0.84400000  0.29514000  1
  C  C201  1  0.45930000  0.89250000  0.27199000  1
  C  C202  1  0.54650000  0.93860000  0.29840000  1
  C  C203  1  0.64740000  0.50000000  0.42016000  1
  C  C204  1  0.69670000  0.50000000  0.39466000  1
  C  C205  1  0.68240000  0.50000000  0.36137000  1
  C  C206  1  0.79080000  0.50000000  0.34565000  1
  C  C207  1  0.72750000  0.50000000  0.33763000  1
  C  C208  1  0.75840000  0.50000000  0.40229000  1
  C  C209  1  0.80720000  0.50000000  0.37886000  1
  C  C210  1  0.84180000  0.50000000  0.31996000  1
  C  C211  1  0.94140000  0.50000000  0.27319000  1
  C  C212  1  0.14740000  0.00000000  0.92016000  1
  C  C213  1  0.19670000  0.00000000  0.89466000  1
  C  C214  1  0.18240000  0.00000000  0.86137000  1
  C  C215  1  0.29080000  0.00000000  0.84565000  1
  C  C216  1  0.22750000  0.00000000  0.83763000  1
  C  C217  1  0.25840000  0.00000000  0.90229000  1
  C  C218  1  0.30720000  0.00000000  0.87886000  1
  C  C219  1  0.34180000  0.00000000  0.81996000  1
  C  C220  1  0.44140000  0.00000000  0.77319000  1
  C  C221  1  0.35260000  0.50000000  0.42016000  1
  C  C222  1  0.30330000  0.50000000  0.39466000  1
  C  C223  1  0.31760000  0.50000000  0.36137000  1
  C  C224  1  0.20920000  0.50000000  0.34565000  1
  C  C225  1  0.27250000  0.50000000  0.33763000  1
  C  C226  1  0.24160000  0.50000000  0.40229000  1
  C  C227  1  0.19280000  0.50000000  0.37886000  1
  C  C228  1  0.15820000  0.50000000  0.31996000  1
  C  C229  1  0.05860000  0.50000000  0.27319000  1
  C  C230  1  0.85260000  0.00000000  0.92016000  1
  C  C231  1  0.80330000  0.00000000  0.89466000  1
  C  C232  1  0.81760000  0.00000000  0.86137000  1
  C  C233  1  0.70920000  0.00000000  0.84565000  1
  C  C234  1  0.77250000  0.00000000  0.83763000  1
  C  C235  1  0.74160000  0.00000000  0.90229000  1
  C  C236  1  0.69280000  0.00000000  0.87886000  1
  C  C237  1  0.65820000  0.00000000  0.81996000  1
  C  C238  1  0.55860000  0.00000000  0.77319000  1
  C  C239  1  0.50000000  0.64740000  0.42016000  1
  C  C240  1  0.50000000  0.69670000  0.39466000  1
  C  C241  1  0.50000000  0.68240000  0.36137000  1
  C  C242  1  0.50000000  0.79080000  0.34565000  1
  C  C243  1  0.50000000  0.72750000  0.33763000  1
  C  C244  1  0.50000000  0.75840000  0.40229000  1
  C  C245  1  0.50000000  0.80720000  0.37886000  1
  C  C246  1  0.50000000  0.84180000  0.31996000  1
  C  C247  1  0.50000000  0.94140000  0.27319000  1
  C  C248  1  0.00000000  0.14740000  0.92016000  1
  C  C249  1  0.00000000  0.19670000  0.89466000  1
  C  C250  1  0.00000000  0.18240000  0.86137000  1
  C  C251  1  0.00000000  0.29080000  0.84565000  1
  C  C252  1  0.00000000  0.22750000  0.83763000  1
  C  C253  1  0.00000000  0.25840000  0.90229000  1
  C  C254  1  0.00000000  0.30720000  0.87886000  1
  C  C255  1  0.00000000  0.34180000  0.81996000  1
  C  C256  1  0.00000000  0.44140000  0.77319000  1
  C  C257  1  0.50000000  0.35260000  0.42016000  1
  C  C258  1  0.50000000  0.30330000  0.39466000  1
  C  C259  1  0.50000000  0.31760000  0.36137000  1
  C  C260  1  0.50000000  0.20920000  0.34565000  1
  C  C261  1  0.50000000  0.27250000  0.33763000  1
  C  C262  1  0.50000000  0.24160000  0.40229000  1
  C  C263  1  0.50000000  0.19280000  0.37886000  1
  C  C264  1  0.50000000  0.15820000  0.31996000  1
  C  C265  1  0.50000000  0.05860000  0.27319000  1
  C  C266  1  0.00000000  0.85260000  0.92016000  1
  C  C267  1  0.00000000  0.80330000  0.89466000  1
  C  C268  1  0.00000000  0.81760000  0.86137000  1
  C  C269  1  0.00000000  0.70920000  0.84565000  1
  C  C270  1  0.00000000  0.77250000  0.83763000  1
  C  C271  1  0.00000000  0.74160000  0.90229000  1
  C  C272  1  0.00000000  0.69280000  0.87886000  1
  C  C273  1  0.00000000  0.65820000  0.81996000  1
  C  C274  1  0.00000000  0.55860000  0.77319000  1
  C  C275  1  0.35260000  0.50000000  0.57984000  1
  C  C276  1  0.30330000  0.50000000  0.60534000  1
  C  C277  1  0.31760000  0.50000000  0.63863000  1
  C  C278  1  0.20920000  0.50000000  0.65435000  1
  C  C279  1  0.27250000  0.50000000  0.66237000  1
  C  C280  1  0.24160000  0.50000000  0.59771000  1
  C  C281  1  0.19280000  0.50000000  0.62114000  1
  C  C282  1  0.15820000  0.50000000  0.68004000  1
  C  C283  1  0.05860000  0.50000000  0.72681000  1
  C  C284  1  0.85260000  0.00000000  0.07984000  1
  C  C285  1  0.80330000  0.00000000  0.10534000  1
  C  C286  1  0.81760000  0.00000000  0.13863000  1
  C  C287  1  0.70920000  0.00000000  0.15435000  1
  C  C288  1  0.77250000  0.00000000  0.16237000  1
  C  C289  1  0.74160000  0.00000000  0.09771000  1
  C  C290  1  0.69280000  0.00000000  0.12114000  1
  C  C291  1  0.65820000  0.00000000  0.18004000  1
  C  C292  1  0.55860000  0.00000000  0.22681000  1
  C  C293  1  0.64740000  0.50000000  0.57984000  1
  C  C294  1  0.69670000  0.50000000  0.60534000  1
  C  C295  1  0.68240000  0.50000000  0.63863000  1
  C  C296  1  0.79080000  0.50000000  0.65435000  1
  C  C297  1  0.72750000  0.50000000  0.66237000  1
  C  C298  1  0.75840000  0.50000000  0.59771000  1
  C  C299  1  0.80720000  0.50000000  0.62114000  1
  C  C300  1  0.84180000  0.50000000  0.68004000  1
  C  C301  1  0.94140000  0.50000000  0.72681000  1
  C  C302  1  0.14740000  0.00000000  0.07984000  1
  C  C303  1  0.19670000  0.00000000  0.10534000  1
  C  C304  1  0.18240000  0.00000000  0.13863000  1
  C  C305  1  0.29080000  0.00000000  0.15435000  1
  C  C306  1  0.22750000  0.00000000  0.16237000  1
  C  C307  1  0.25840000  0.00000000  0.09771000  1
  C  C308  1  0.30720000  0.00000000  0.12114000  1
  C  C309  1  0.34180000  0.00000000  0.18004000  1
  C  C310  1  0.44140000  0.00000000  0.22681000  1
  C  C311  1  0.50000000  0.64740000  0.57984000  1
  C  C312  1  0.50000000  0.69670000  0.60534000  1
  C  C313  1  0.50000000  0.68240000  0.63863000  1
  C  C314  1  0.50000000  0.79080000  0.65435000  1
  C  C315  1  0.50000000  0.72750000  0.66237000  1
  C  C316  1  0.50000000  0.75840000  0.59771000  1
  C  C317  1  0.50000000  0.80720000  0.62114000  1
  C  C318  1  0.50000000  0.84180000  0.68004000  1
  C  C319  1  0.50000000  0.94140000  0.72681000  1
  C  C320  1  0.00000000  0.14740000  0.07984000  1
  C  C321  1  0.00000000  0.19670000  0.10534000  1
  C  C322  1  0.00000000  0.18240000  0.13863000  1
  C  C323  1  0.00000000  0.29080000  0.15435000  1
  C  C324  1  0.00000000  0.22750000  0.16237000  1
  C  C325  1  0.00000000  0.25840000  0.09771000  1
  C  C326  1  0.00000000  0.30720000  0.12114000  1
  C  C327  1  0.00000000  0.34180000  0.18004000  1
  C  C328  1  0.00000000  0.44140000  0.22681000  1
  C  C329  1  0.50000000  0.35260000  0.57984000  1
  C  C330  1  0.50000000  0.30330000  0.60534000  1
  C  C331  1  0.50000000  0.31760000  0.63863000  1
  C  C332  1  0.50000000  0.20920000  0.65435000  1
  C  C333  1  0.50000000  0.27250000  0.66237000  1
  C  C334  1  0.50000000  0.24160000  0.59771000  1
  C  C335  1  0.50000000  0.19280000  0.62114000  1
  C  C336  1  0.50000000  0.15820000  0.68004000  1
  C  C337  1  0.50000000  0.05860000  0.72681000  1
  C  C338  1  0.00000000  0.85260000  0.07984000  1
  C  C339  1  0.00000000  0.80330000  0.10534000  1
  C  C340  1  0.00000000  0.81760000  0.13863000  1
  C  C341  1  0.00000000  0.70920000  0.15435000  1
  C  C342  1  0.00000000  0.77250000  0.16237000  1
  C  C343  1  0.00000000  0.74160000  0.09771000  1
  C  C344  1  0.00000000  0.69280000  0.12114000  1
  C  C345  1  0.00000000  0.65820000  0.18004000  1
  C  C346  1  0.00000000  0.55860000  0.22681000  1
  C  C347  1  0.00000000  0.50000000  0.25000000  1
  C  C348  1  0.50000000  0.00000000  0.25000000  1
  C  C349  1  0.00000000  0.50000000  0.75000000  1
  C  C350  1  0.50000000  0.00000000  0.75000000  1
  O  O351  1  0.58984000  0.50000000  0.41110000  1
  O  O352  1  0.66613000  0.50000000  0.45012000  1
  O  O353  1  0.08984000  0.00000000  0.91110000  1
  O  O354  1  0.16613000  0.00000000  0.95012000  1
  O  O355  1  0.41016000  0.50000000  0.41110000  1
  O  O356  1  0.33387000  0.50000000  0.45012000  1
  O  O357  1  0.91016000  0.00000000  0.91110000  1
  O  O358  1  0.83387000  0.00000000  0.95012000  1
  O  O359  1  0.50000000  0.58984000  0.41110000  1
  O  O360  1  0.50000000  0.66613000  0.45012000  1
  O  O361  1  0.00000000  0.08984000  0.91110000  1
  O  O362  1  0.00000000  0.16613000  0.95012000  1
  O  O363  1  0.50000000  0.41016000  0.41110000  1
  O  O364  1  0.50000000  0.33387000  0.45012000  1
  O  O365  1  0.00000000  0.91016000  0.91110000  1
  O  O366  1  0.00000000  0.83387000  0.95012000  1
  O  O367  1  0.41016000  0.50000000  0.58890000  1
  O  O368  1  0.33387000  0.50000000  0.54988000  1
  O  O369  1  0.91016000  0.00000000  0.08890000  1
  O  O370  1  0.83387000  0.00000000  0.04988000  1
  O  O371  1  0.58984000  0.50000000  0.58890000  1
  O  O372  1  0.66613000  0.50000000  0.54988000  1
  O  O373  1  0.08984000  0.00000000  0.08890000  1
  O  O374  1  0.16613000  0.00000000  0.04988000  1
  O  O375  1  0.50000000  0.58984000  0.58890000  1
  O  O376  1  0.50000000  0.66613000  0.54988000  1
  O  O377  1  0.00000000  0.08984000  0.08890000  1
  O  O378  1  0.00000000  0.16613000  0.04988000  1
  O  O379  1  0.50000000  0.41016000  0.58890000  1
  O  O380  1  0.50000000  0.33387000  0.54988000  1
  O  O381  1  0.00000000  0.91016000  0.08890000  1
  O  O382  1  0.00000000  0.83387000  0.04988000  1
  O  O383  1  0.44199000  0.55801000  0.47029000  1
  O  O384  1  0.94199000  0.05801000  0.97029000  1
  O  O385  1  0.55801000  0.44199000  0.47029000  1
  O  O386  1  0.05801000  0.94199000  0.97029000  1
  O  O387  1  0.44199000  0.44199000  0.47029000  1
  O  O388  1  0.94199000  0.94199000  0.97029000  1
  O  O389  1  0.55801000  0.55801000  0.47029000  1
  O  O390  1  0.05801000  0.05801000  0.97029000  1
  O  O391  1  0.55801000  0.55801000  0.52971000  1
  O  O392  1  0.05801000  0.05801000  0.02971000  1
  O  O393  1  0.44199000  0.44199000  0.52971000  1
  O  O394  1  0.94199000  0.94199000  0.02971000  1
  O  O395  1  0.55801000  0.44199000  0.52971000  1
  O  O396  1  0.05801000  0.94199000  0.02971000  1
  O  O397  1  0.44199000  0.55801000  0.52971000  1
  O  O398  1  0.94199000  0.05801000  0.02971000  1
