# generated using pymatgen
data_Zr3H24(C21O8)2
_symmetry_space_group_name_H-M   'P 1'
_cell_length_a   18.90944954
_cell_length_b   18.90944954
_cell_length_c   18.90944954
_cell_angle_alpha   60.00000000
_cell_angle_beta   60.00000000
_cell_angle_gamma   60.00000000
_symmetry_Int_Tables_number   1
_chemical_formula_structural   Zr3H24(C21O8)2
_chemical_formula_sum   'Zr6 H48 C84 O32'
_cell_volume   4781.03212762
_cell_formula_units_Z   2
loop_
 _symmetry_equiv_pos_site_id
 _symmetry_equiv_pos_as_xyz
  1  'x, y, z'
loop_
 _atom_site_type_symbol
 _atom_site_label
 _atom_site_symmetry_multiplicity
 _atom_site_fract_x
 _atom_site_fract_y
 _atom_site_fract_z
 _atom_site_occupancy
  C  C0  1  0.50000000  0.73508000  0.26492000  1
  C  C1  1  0.50000000  0.81290000  0.18710000  1
  C  C2  1  0.50000000  0.96046000  0.03954000  1
  C  C3  1  0.50000000  0.26492000  0.73508000  1
  C  C4  1  0.50000000  0.18710000  0.81290000  1
  C  C5  1  0.50000000  0.03954000  0.96046000  1
  C  C6  1  0.26492000  0.50000000  0.50000000  1
  C  C7  1  0.18710000  0.50000000  0.50000000  1
  C  C8  1  0.03954000  0.50000000  0.50000000  1
  C  C9  1  0.73508000  0.50000000  0.50000000  1
  C  C10  1  0.81290000  0.50000000  0.50000000  1
  C  C11  1  0.96046000  0.50000000  0.50000000  1
  C  C12  1  0.73508000  0.26492000  0.50000000  1
  C  C13  1  0.81290000  0.18710000  0.50000000  1
  C  C14  1  0.96046000  0.03954000  0.50000000  1
  C  C15  1  0.26492000  0.73508000  0.50000000  1
  C  C16  1  0.18710000  0.81290000  0.50000000  1
  C  C17  1  0.03954000  0.96046000  0.50000000  1
  C  C18  1  0.50000000  0.50000000  0.26492000  1
  C  C19  1  0.50000000  0.50000000  0.18710000  1
  C  C20  1  0.50000000  0.50000000  0.03954000  1
  C  C21  1  0.50000000  0.50000000  0.73508000  1
  C  C22  1  0.50000000  0.50000000  0.81290000  1
  C  C23  1  0.50000000  0.50000000  0.96046000  1
  C  C24  1  0.26492000  0.50000000  0.73508000  1
  C  C25  1  0.18710000  0.50000000  0.81290000  1
  C  C26  1  0.03954000  0.50000000  0.96046000  1
  C  C27  1  0.73508000  0.50000000  0.26492000  1
  C  C28  1  0.81290000  0.50000000  0.18710000  1
  C  C29  1  0.96046000  0.50000000  0.03954000  1
  C  C30  1  0.50000000  0.26492000  0.50000000  1
  C  C31  1  0.50000000  0.18710000  0.50000000  1
  C  C32  1  0.50000000  0.03954000  0.50000000  1
  C  C33  1  0.50000000  0.73508000  0.50000000  1
  C  C34  1  0.50000000  0.81290000  0.50000000  1
  C  C35  1  0.50000000  0.96046000  0.50000000  1
  C  C36  1  0.43810000  0.84988000  0.15012000  1
  C  C37  1  0.43905000  0.92363000  0.07637000  1
  C  C38  1  0.56190000  0.15012000  0.84988000  1
  C  C39  1  0.56095000  0.07637000  0.92363000  1
  C  C40  1  0.15012000  0.56190000  0.43810000  1
  C  C41  1  0.07637000  0.56095000  0.43905000  1
  C  C42  1  0.84988000  0.43810000  0.56190000  1
  C  C43  1  0.92363000  0.43905000  0.56095000  1
  C  C44  1  0.84988000  0.15012000  0.43810000  1
  C  C45  1  0.92363000  0.07637000  0.43905000  1
  C  C46  1  0.15012000  0.84988000  0.56190000  1
  C  C47  1  0.07637000  0.92363000  0.56095000  1
  C  C48  1  0.56190000  0.43810000  0.15012000  1
  C  C49  1  0.56095000  0.43905000  0.07637000  1
  C  C50  1  0.43810000  0.56190000  0.84988000  1
  C  C51  1  0.43905000  0.56095000  0.92363000  1
  C  C52  1  0.15012000  0.43810000  0.84988000  1
  C  C53  1  0.07637000  0.43905000  0.92363000  1
  C  C54  1  0.84988000  0.56190000  0.15012000  1
  C  C55  1  0.92363000  0.56095000  0.07637000  1
  C  C56  1  0.43810000  0.15012000  0.56190000  1
  C  C57  1  0.43905000  0.07637000  0.56095000  1
  C  C58  1  0.56190000  0.84988000  0.43810000  1
  C  C59  1  0.56095000  0.92363000  0.43905000  1
  C  C60  1  0.43810000  0.15012000  0.84988000  1
  C  C61  1  0.43905000  0.07637000  0.92363000  1
  C  C62  1  0.56190000  0.84988000  0.15012000  1
  C  C63  1  0.56095000  0.92363000  0.07637000  1
  C  C64  1  0.15012000  0.43810000  0.56190000  1
  C  C65  1  0.07637000  0.43905000  0.56095000  1
  C  C66  1  0.84988000  0.56190000  0.43810000  1
  C  C67  1  0.92363000  0.56095000  0.43905000  1
  C  C68  1  0.43810000  0.84988000  0.56190000  1
  C  C69  1  0.43905000  0.92363000  0.56095000  1
  C  C70  1  0.56190000  0.15012000  0.43810000  1
  C  C71  1  0.56095000  0.07637000  0.43905000  1
  C  C72  1  0.15012000  0.56190000  0.84988000  1
  C  C73  1  0.07637000  0.56095000  0.92363000  1
  C  C74  1  0.84988000  0.43810000  0.15012000  1
  C  C75  1  0.92363000  0.43905000  0.07637000  1
  C  C76  1  0.43810000  0.56190000  0.15012000  1
  C  C77  1  0.43905000  0.56095000  0.07637000  1
  C  C78  1  0.56190000  0.43810000  0.84988000  1
  C  C79  1  0.56095000  0.43905000  0.92363000  1
  C  C80  1  0.15012000  0.84988000  0.43810000  1
  C  C81  1  0.07637000  0.92363000  0.43905000  1
  C  C82  1  0.84988000  0.15012000  0.56190000  1
  C  C83  1  0.92363000  0.07637000  0.56095000  1
  H  H84  1  0.39420000  0.82540000  0.17460000  1
  H  H85  1  0.39540000  0.94860000  0.05140000  1
  H  H86  1  0.60580000  0.17460000  0.82540000  1
  H  H87  1  0.60460000  0.05140000  0.94860000  1
  H  H88  1  0.17460000  0.60580000  0.39420000  1
  H  H89  1  0.05140000  0.60460000  0.39540000  1
  H  H90  1  0.82540000  0.39420000  0.60580000  1
  H  H91  1  0.94860000  0.39540000  0.60460000  1
  H  H92  1  0.82540000  0.17460000  0.39420000  1
  H  H93  1  0.94860000  0.05140000  0.39540000  1
  H  H94  1  0.17460000  0.82540000  0.60580000  1
  H  H95  1  0.05140000  0.94860000  0.60460000  1
  H  H96  1  0.60580000  0.39420000  0.17460000  1
  H  H97  1  0.60460000  0.39540000  0.05140000  1
  H  H98  1  0.39420000  0.60580000  0.82540000  1
  H  H99  1  0.39540000  0.60460000  0.94860000  1
  H  H100  1  0.17460000  0.39420000  0.82540000  1
  H  H101  1  0.05140000  0.39540000  0.94860000  1
  H  H102  1  0.82540000  0.60580000  0.17460000  1
  H  H103  1  0.94860000  0.60460000  0.05140000  1
  H  H104  1  0.39420000  0.17460000  0.60580000  1
  H  H105  1  0.39540000  0.05140000  0.60460000  1
  H  H106  1  0.60580000  0.82540000  0.39420000  1
  H  H107  1  0.60460000  0.94860000  0.39540000  1
  H  H108  1  0.39420000  0.17460000  0.82540000  1
  H  H109  1  0.39540000  0.05140000  0.94860000  1
  H  H110  1  0.60580000  0.82540000  0.17460000  1
  H  H111  1  0.60460000  0.94860000  0.05140000  1
  H  H112  1  0.17460000  0.39420000  0.60580000  1
  H  H113  1  0.05140000  0.39540000  0.60460000  1
  H  H114  1  0.82540000  0.60580000  0.39420000  1
  H  H115  1  0.94860000  0.60460000  0.39540000  1
  H  H116  1  0.39420000  0.82540000  0.60580000  1
  H  H117  1  0.39540000  0.94860000  0.60460000  1
  H  H118  1  0.60580000  0.17460000  0.39420000  1
  H  H119  1  0.60460000  0.05140000  0.39540000  1
  H  H120  1  0.17460000  0.60580000  0.82540000  1
  H  H121  1  0.05140000  0.60460000  0.94860000  1
  H  H122  1  0.82540000  0.39420000  0.17460000  1
  H  H123  1  0.94860000  0.39540000  0.05140000  1
  H  H124  1  0.39420000  0.60580000  0.17460000  1
  H  H125  1  0.39540000  0.60460000  0.05140000  1
  H  H126  1  0.60580000  0.39420000  0.82540000  1
  H  H127  1  0.60460000  0.39540000  0.94860000  1
  H  H128  1  0.17460000  0.82540000  0.39420000  1
  H  H129  1  0.05140000  0.94860000  0.39540000  1
  H  H130  1  0.82540000  0.17460000  0.60580000  1
  H  H131  1  0.94860000  0.05140000  0.60460000  1
  O  O132  1  0.56077000  0.70463000  0.29537000  1
  O  O133  1  0.43923000  0.29537000  0.70463000  1
  O  O134  1  0.29537000  0.43923000  0.56077000  1
  O  O135  1  0.70463000  0.56077000  0.43923000  1
  O  O136  1  0.70463000  0.29537000  0.56077000  1
  O  O137  1  0.29537000  0.70463000  0.43923000  1
  O  O138  1  0.43923000  0.56077000  0.29537000  1
  O  O139  1  0.56077000  0.43923000  0.70463000  1
  O  O140  1  0.29537000  0.56077000  0.70463000  1
  O  O141  1  0.70463000  0.43923000  0.29537000  1
  O  O142  1  0.56077000  0.29537000  0.43923000  1
  O  O143  1  0.43923000  0.70463000  0.56077000  1
  O  O144  1  0.56077000  0.29537000  0.70463000  1
  O  O145  1  0.43923000  0.70463000  0.29537000  1
  O  O146  1  0.29537000  0.56077000  0.43923000  1
  O  O147  1  0.70463000  0.43923000  0.56077000  1
  O  O148  1  0.56077000  0.70463000  0.43923000  1
  O  O149  1  0.43923000  0.29537000  0.56077000  1
  O  O150  1  0.29537000  0.43923000  0.70463000  1
  O  O151  1  0.70463000  0.56077000  0.29537000  1
  O  O152  1  0.56077000  0.43923000  0.29537000  1
  O  O153  1  0.43923000  0.56077000  0.70463000  1
  O  O154  1  0.29537000  0.70463000  0.56077000  1
  O  O155  1  0.70463000  0.29537000  0.43923000  1
  O  O156  1  0.45411000  0.63767000  0.45411000  1
  O  O157  1  0.45411000  0.45411000  0.63767000  1
  O  O158  1  0.45411000  0.45411000  0.45411000  1
  O  O159  1  0.63767000  0.45411000  0.45411000  1
  O  O160  1  0.54589000  0.36233000  0.54589000  1
  O  O161  1  0.54589000  0.54589000  0.36233000  1
  O  O162  1  0.36233000  0.54589000  0.54589000  1
  O  O163  1  0.54589000  0.54589000  0.54589000  1
  Zr  Zr164  1  0.59243000  0.59243000  0.40757000  1
  Zr  Zr165  1  0.40757000  0.40757000  0.59243000  1
  Zr  Zr166  1  0.59243000  0.40757000  0.59243000  1
  Zr  Zr167  1  0.40757000  0.59243000  0.40757000  1
  Zr  Zr168  1  0.40757000  0.59243000  0.59243000  1
  Zr  Zr169  1  0.59243000  0.40757000  0.40757000  1
