# generated using pymatgen
data_K2Zr(CO2)8
_symmetry_space_group_name_H-M   'P 1'
_cell_length_a   10.22500000
_cell_length_b   13.95400000
_cell_length_c   19.05300000
_cell_angle_alpha   90.00000000
_cell_angle_beta   90.00000000
_cell_angle_gamma   99.50900000
_symmetry_Int_Tables_number   1
_chemical_formula_structural   K2Zr(CO2)8
_chemical_formula_sum   'K8 Zr4 C32 O64'
_cell_volume   2681.12260576
_cell_formula_units_Z   4
loop_
 _symmetry_equiv_pos_site_id
 _symmetry_equiv_pos_as_xyz
  1  'x, y, z'
loop_
 _atom_site_type_symbol
 _atom_site_label
 _atom_site_symmetry_multiplicity
 _atom_site_fract_x
 _atom_site_fract_y
 _atom_site_fract_z
 _atom_site_occupancy
  K  K0  1  0.68135000  0.58870000  0.85146000  1
  K  K1  1  0.66840000  0.08141000  0.35274000  1
  K  K2  1  0.82140000  0.41787000  0.54858000  1
  K  K3  1  0.17340000  0.09519000  0.55079000  1
  K  K4  1  0.31865000  0.41130000  0.35146000  1
  K  K5  1  0.33160000  0.91859000  0.85274000  1
  K  K6  1  0.17860000  0.58213000  0.04858000  1
  K  K7  1  0.82660000  0.90481000  0.05079000  1
  Zr  Zr8  1  0.49856000  0.25612000  0.62867000  1
  Zr  Zr9  1  0.00885000  0.75503000  0.77298000  1
  Zr  Zr10  1  0.50144000  0.74388000  0.12867000  1
  Zr  Zr11  1  0.99115000  0.24497000  0.27298000  1
  C  C12  1  0.66990000  0.16580000  0.52280000  1
  C  C13  1  0.52850000  0.10660000  0.51520000  1
  C  C14  1  0.49440000  0.08360000  0.72760000  1
  C  C15  1  0.34770000  0.10150000  0.72530000  1
  C  C16  1  0.51040000  0.42860000  0.72960000  1
  C  C17  1  0.65720000  0.41460000  0.72050000  1
  C  C18  1  0.31960000  0.34130000  0.52420000  1
  C  C19  1  0.45710000  0.40380000  0.51520000  1
  C  C20  1  0.18460000  0.66780000  0.87580000  1
  C  C21  1  0.04320000  0.60440000  0.88470000  1
  C  C22  1  0.00170000  0.58690000  0.66650000  1
  C  C23  1  0.86930000  0.62210000  0.65920000  1
  C  C24  1  0.15560000  0.89730000  0.66690000  1
  C  C25  1  0.01970000  0.92990000  0.67170000  1
  C  C26  1  0.82820000  0.83740000  0.87560000  1
  C  C27  1  0.96690000  0.90030000  0.88770000  1
  C  C28  1  0.33010000  0.83420000  0.02280000  1
  C  C29  1  0.47150000  0.89340000  0.01520000  1
  C  C30  1  0.50560000  0.91640000  0.22760000  1
  C  C31  1  0.65230000  0.89850000  0.22530000  1
  C  C32  1  0.48960000  0.57140000  0.22960000  1
  C  C33  1  0.34280000  0.58540000  0.22050000  1
  C  C34  1  0.68040000  0.65870000  0.02420000  1
  C  C35  1  0.54290000  0.59620000  0.01520000  1
  C  C36  1  0.81540000  0.33220000  0.37580000  1
  C  C37  1  0.95680000  0.39560000  0.38470000  1
  C  C38  1  0.99830000  0.41310000  0.16650000  1
  C  C39  1  0.13070000  0.37790000  0.15920000  1
  C  C40  1  0.84440000  0.10270000  0.16690000  1
  C  C41  1  0.98030000  0.07010000  0.17170000  1
  C  C42  1  0.17180000  0.16260000  0.37560000  1
  C  C43  1  0.03310000  0.09970000  0.38770000  1
  O  O44  1  0.67680000  0.23130000  0.57080000  1
  O  O45  1  0.44460000  0.13220000  0.55720000  1
  O  O46  1  0.76060000  0.14840000  0.48640000  1
  O  O47  1  0.50590000  0.04030000  0.47120000  1
  O  O48  1  0.57510000  0.14840000  0.69540000  1
  O  O49  1  0.33230000  0.17080000  0.68400000  1
  O  O50  1  0.52010000  0.01070000  0.75630000  1
  O  O51  1  0.26240000  0.05160000  0.76060000  1
  O  O52  1  0.42880000  0.36410000  0.69700000  1
  O  O53  1  0.66940000  0.34250000  0.67990000  1
  O  O54  1  0.48510000  0.49710000  0.76360000  1
  O  O55  1  0.74720000  0.46870000  0.74920000  1
  O  O56  1  0.31460000  0.27980000  0.57440000  1
  O  O57  1  0.54480000  0.38030000  0.55610000  1
  O  O58  1  0.22720000  0.35290000  0.48620000  1
  O  O59  1  0.47560000  0.46880000  0.47070000  1
  O  O60  1  0.18990000  0.73010000  0.82610000  1
  O  O61  1  0.95710000  0.63180000  0.84430000  1
  O  O62  1  0.27500000  0.65410000  0.91530000  1
  O  O63  1  0.02630000  0.53770000  0.92680000  1
  O  O64  1  0.07940000  0.63640000  0.71080000  1
  O  O65  1  0.85110000  0.68770000  0.70440000  1
  O  O66  1  0.02820000  0.51870000  0.63040000  1
  O  O67  1  0.78980000  0.59160000  0.61220000  1
  O  O68  1  0.17180000  0.82930000  0.71040000  1
  O  O69  1  0.94260000  0.87870000  0.71540000  1
  O  O70  1  0.23760000  0.93390000  0.62290000  1
  O  O71  1  0.99050000  0.99660000  0.63710000  1
  O  O72  1  0.82480000  0.77660000  0.82550000  1
  O  O73  1  0.05730000  0.87310000  0.84870000  1
  O  O74  1  0.73590000  0.84750000  0.91560000  1
  O  O75  1  0.98200000  0.96730000  0.92920000  1
  O  O76  1  0.47990000  0.98930000  0.25630000  1
  O  O77  1  0.73760000  0.94840000  0.26060000  1
  O  O78  1  0.77280000  0.64710000  0.98620000  1
  O  O79  1  0.52440000  0.53120000  0.97070000  1
  O  O80  1  0.81010000  0.26990000  0.32610000  1
  O  O81  1  0.72500000  0.34590000  0.41530000  1
  O  O82  1  0.97370000  0.46230000  0.42680000  1
  O  O83  1  0.94270000  0.12690000  0.34870000  1
  O  O84  1  0.26410000  0.15250000  0.41560000  1
  O  O85  1  0.01800000  0.03270000  0.42920000  1
  O  O86  1  0.32320000  0.76870000  0.07080000  1
  O  O87  1  0.55540000  0.86780000  0.05720000  1
  O  O88  1  0.23940000  0.85160000  0.98640000  1
  O  O89  1  0.49410000  0.95970000  0.97120000  1
  O  O90  1  0.42490000  0.85160000  0.19540000  1
  O  O91  1  0.66770000  0.82920000  0.18400000  1
  O  O92  1  0.57120000  0.63590000  0.19700000  1
  O  O93  1  0.33060000  0.65750000  0.17990000  1
  O  O94  1  0.51490000  0.50290000  0.26360000  1
  O  O95  1  0.25280000  0.53130000  0.24920000  1
  O  O96  1  0.68540000  0.72020000  0.07440000  1
  O  O97  1  0.45520000  0.61970000  0.05610000  1
  O  O98  1  0.04290000  0.36820000  0.34430000  1
  O  O99  1  0.92060000  0.36360000  0.21080000  1
  O  O100  1  0.14890000  0.31230000  0.20440000  1
  O  O101  1  0.97180000  0.48130000  0.13040000  1
  O  O102  1  0.21020000  0.40840000  0.11220000  1
  O  O103  1  0.82820000  0.17070000  0.21040000  1
  O  O104  1  0.05740000  0.12130000  0.21540000  1
  O  O105  1  0.76240000  0.06610000  0.12290000  1
  O  O106  1  0.00950000  0.00340000  0.13710000  1
  O  O107  1  0.17520000  0.22340000  0.32550000  1
