# generated using pymatgen
data_KZrH2C7O15
_symmetry_space_group_name_H-M   'P 1'
_cell_length_a   10.38780000
_cell_length_b   13.39100000
_cell_length_c   14.71200000
_cell_angle_alpha   90.87500000
_cell_angle_beta   90.00000000
_cell_angle_gamma   90.00000000
_symmetry_Int_Tables_number   1
_chemical_formula_structural   KZrH2C7O15
_chemical_formula_sum   'K4 Zr4 H8 C28 O60'
_cell_volume   2046.24513581
_cell_formula_units_Z   4
loop_
 _symmetry_equiv_pos_site_id
 _symmetry_equiv_pos_as_xyz
  1  'x, y, z'
loop_
 _atom_site_type_symbol
 _atom_site_label
 _atom_site_symmetry_multiplicity
 _atom_site_fract_x
 _atom_site_fract_y
 _atom_site_fract_z
 _atom_site_occupancy
  K  K0  1  0.15484000  0.44880000  0.68709000  1.0
  K  K1  1  0.65484000  0.55120000  0.81291000  1.0
  K  K2  1  0.84516000  0.55120000  0.31291000  1.0
  K  K3  1  0.34516000  0.44880000  0.18709000  1.0
  Zr  Zr4  1  0.33316000  0.32041000  0.47114000  1.0
  Zr  Zr5  1  0.83316000  0.67959000  0.02886000  1.0
  Zr  Zr6  1  0.66684000  0.67959000  0.52886000  1.0
  Zr  Zr7  1  0.16684000  0.32041000  0.97114000  1.0
  H  H8  1  0.04310000  0.61360000  0.80440000  1.0
  H  H9  1  0.54310000  0.38640000  0.69560000  1.0
  H  H10  1  0.95690000  0.38640000  0.19560000  1.0
  H  H11  1  0.45690000  0.61360000  0.30440000  1.0
  H  H12  1  0.15200000  0.62500000  0.84060000  1.0
  H  H13  1  0.65200000  0.37500000  0.65940000  1.0
  H  H14  1  0.84800000  0.37500000  0.15940000  1.0
  H  H15  1  0.34800000  0.62500000  0.34060000  1.0
  C  C16  1  0.36950000  0.23640000  0.66070000  1.0
  C  C17  1  0.86950000  0.76360000  0.83930000  1.0
  C  C18  1  0.63050000  0.76360000  0.33930000  1.0
  C  C19  1  0.13050000  0.23640000  0.16070000  1.0
  C  C20  1  0.48100000  0.19350000  0.60330000  1.0
  C  C21  1  0.98100000  0.80650000  0.89670000  1.0
  C  C22  1  0.51900000  0.80650000  0.39670000  1.0
  C  C23  1  0.01900000  0.19350000  0.10330000  1.0
  C  C24  1  0.26220000  0.11690000  0.39000000  1.0
  C  C25  1  0.76220000  0.88310000  0.11000000  1.0
  C  C26  1  0.73780000  0.88310000  0.61000000  1.0
  C  C27  1  0.23780000  0.11690000  0.89000000  1.0
  C  C28  1  0.36670000  0.15850000  0.32760000  1.0
  C  C29  1  0.86670000  0.84150000  0.17240000  1.0
  C  C30  1  0.63330000  0.84150000  0.67240000  1.0
  C  C31  1  0.13330000  0.15850000  0.82760000  1.0
  C  C32  1  0.14790000  0.43700000  0.35350000  1.0
  C  C33  1  0.64790000  0.56300000  0.14650000  1.0
  C  C34  1  0.85210000  0.56300000  0.64650000  1.0
  C  C35  1  0.35210000  0.43700000  0.85350000  1.0
  C  C36  1  0.06370000  0.40180000  0.43390000  1.0
  C  C37  1  0.56370000  0.59820000  0.06610000  1.0
  C  C38  1  0.93630000  0.59820000  0.56610000  1.0
  C  C39  1  0.43630000  0.40180000  0.93390000  1.0
  C  C40  1  0.45390000  0.51950000  0.53600000  1.0
  C  C41  1  0.95390000  0.48050000  0.96400000  1.0
  C  C42  1  0.54610000  0.48050000  0.46400000  1.0
  C  C43  1  0.04610000  0.51950000  0.03600000  1.0
  O  O44  1  0.49150000  0.23570000  0.52539000  1.0
  O  O45  1  0.99150000  0.76430000  0.97461000  1.0
  O  O46  1  0.50850000  0.76430000  0.47461000  1.0
  O  O47  1  0.00850000  0.23570000  0.02539000  1.0
  O  O48  1  0.36030000  0.22020000  0.74205000  1.0
  O  O49  1  0.86030000  0.77980000  0.75795000  1.0
  O  O50  1  0.63970000  0.77980000  0.25795000  1.0
  O  O51  1  0.13970000  0.22020000  0.24205000  1.0
  O  O52  1  0.54820000  0.12530000  0.63017000  1.0
  O  O53  1  0.04820000  0.87470000  0.86983000  1.0
  O  O54  1  0.45180000  0.87470000  0.36983000  1.0
  O  O55  1  0.95180000  0.12530000  0.13017000  1.0
  O  O56  1  0.23390000  0.17780000  0.45639000  1.0
  O  O57  1  0.73390000  0.82220000  0.04361000  1.0
  O  O58  1  0.76610000  0.82220000  0.54361000  1.0
  O  O59  1  0.26610000  0.17780000  0.95639000  1.0
  O  O60  1  0.40530000  0.24600000  0.34913000  1.0
  O  O61  1  0.90530000  0.75400000  0.15087000  1.0
  O  O62  1  0.59470000  0.75400000  0.65087000  1.0
  O  O63  1  0.09470000  0.24600000  0.84913000  1.0
  O  O64  1  0.21730000  0.03410000  0.37690000  1.0
  O  O65  1  0.71730000  0.96590000  0.12310000  1.0
  O  O66  1  0.78270000  0.96590000  0.62310000  1.0
  O  O67  1  0.28270000  0.03410000  0.87690000  1.0
  O  O68  1  0.40940000  0.10760000  0.26360000  1.0
  O  O69  1  0.90940000  0.89240000  0.23640000  1.0
  O  O70  1  0.59060000  0.89240000  0.73640000  1.0
  O  O71  1  0.09060000  0.10760000  0.76360000  1.0
  O  O72  1  0.48310000  0.60032000  0.57422000  1.0
  O  O73  1  0.98310000  0.39968000  0.92578000  1.0
  O  O74  1  0.51690000  0.39968000  0.42578000  1.0
  O  O75  1  0.01690000  0.60032000  0.07422000  1.0
  O  O76  1  0.11670000  0.63050000  0.78960000  1.0
  O  O77  1  0.61670000  0.36950000  0.71040000  1.0
  O  O78  1  0.88330000  0.36950000  0.21040000  1.0
  O  O79  1  0.38330000  0.63050000  0.28960000  1.0
  O  O80  1  0.29060000  0.28864000  0.61304000  1.0
  O  O81  1  0.79060000  0.71136000  0.88696000  1.0
  O  O82  1  0.70940000  0.71136000  0.38696000  1.0
  O  O83  1  0.20940000  0.28864000  0.11304000  1.0
  O  O84  1  0.26760000  0.41560000  0.36338000  1.0
  O  O85  1  0.76760000  0.58440000  0.13662000  1.0
  O  O86  1  0.73240000  0.58440000  0.63662000  1.0
  O  O87  1  0.23240000  0.41560000  0.86338000  1.0
  O  O88  1  0.12990000  0.35740000  0.49513000  1.0
  O  O89  1  0.62990000  0.64260000  0.00487000  1.0
  O  O90  1  0.87010000  0.64260000  0.50487000  1.0
  O  O91  1  0.37010000  0.35740000  0.99513000  1.0
  O  O92  1  0.35600000  0.46614000  0.55035000  1.0
  O  O93  1  0.85600000  0.53386000  0.94965000  1.0
  O  O94  1  0.64400000  0.53386000  0.44965000  1.0
  O  O95  1  0.14400000  0.46614000  0.05035000  1.0
  O  O96  1  0.10130000  0.47990000  0.28874000  1.0
  O  O97  1  0.60130000  0.52010000  0.21126000  1.0
  O  O98  1  0.89870000  0.52010000  0.71126000  1.0
  O  O99  1  0.39870000  0.47990000  0.78874000  1.0
  O  O100  1  0.94740000  0.41520000  0.43381000  1.0
  O  O101  1  0.44740000  0.58480000  0.06619000  1.0
  O  O102  1  0.05260000  0.58480000  0.56619000  1.0
  O  O103  1  0.55260000  0.41520000  0.93381000  1.0
