# generated using pymatgen
data_Zr3H4C24S6(N3O8)2
_symmetry_space_group_name_H-M   'P 1'
_cell_length_a   25.35050000
_cell_length_b   25.35050000
_cell_length_c   25.35050000
_cell_angle_alpha   90.00000000
_cell_angle_beta   90.00000000
_cell_angle_gamma   90.00000000
_symmetry_Int_Tables_number   1
_chemical_formula_structural   Zr3H4C24S6(N3O8)2
_chemical_formula_sum   'Zr24 H32 C192 S48 N48 O128'
_cell_volume   16291.44432776
_cell_formula_units_Z   8
loop_
 _symmetry_equiv_pos_site_id
 _symmetry_equiv_pos_as_xyz
  1  'x, y, z'
loop_
 _atom_site_type_symbol
 _atom_site_label
 _atom_site_symmetry_multiplicity
 _atom_site_fract_x
 _atom_site_fract_y
 _atom_site_fract_z
 _atom_site_occupancy
  Zr  Zr0  1  0.50640000  0.49990000  0.40666000  1
  Zr  Zr1  1  0.99360000  0.00010000  0.40666000  1
  Zr  Zr2  1  0.50640000  0.00010000  0.09334000  1
  Zr  Zr3  1  0.99360000  0.49990000  0.09334000  1
  Zr  Zr4  1  0.40666000  0.50640000  0.49990000  1
  Zr  Zr5  1  0.09334000  0.99360000  0.49990000  1
  Zr  Zr6  1  0.40666000  0.99360000  0.00010000  1
  Zr  Zr7  1  0.09334000  0.50640000  0.00010000  1
  Zr  Zr8  1  0.49990000  0.40666000  0.50640000  1
  Zr  Zr9  1  0.49990000  0.09334000  0.99360000  1
  Zr  Zr10  1  0.00010000  0.40666000  0.99360000  1
  Zr  Zr11  1  0.00010000  0.09334000  0.50640000  1
  Zr  Zr12  1  0.49360000  0.50010000  0.59334000  1
  Zr  Zr13  1  0.00640000  0.99990000  0.59334000  1
  Zr  Zr14  1  0.49360000  0.99990000  0.90666000  1
  Zr  Zr15  1  0.00640000  0.50010000  0.90666000  1
  Zr  Zr16  1  0.59334000  0.49360000  0.50010000  1
  Zr  Zr17  1  0.90666000  0.00640000  0.50010000  1
  Zr  Zr18  1  0.59334000  0.00640000  0.99990000  1
  Zr  Zr19  1  0.90666000  0.49360000  0.99990000  1
  Zr  Zr20  1  0.50010000  0.59334000  0.49360000  1
  Zr  Zr21  1  0.50010000  0.90666000  0.00640000  1
  Zr  Zr22  1  0.99990000  0.59334000  0.00640000  1
  Zr  Zr23  1  0.99990000  0.90666000  0.49360000  1
  H  H24  1  0.74444000  0.50406000  0.40727000  1
  H  H25  1  0.43317000  0.43317000  0.43317000  1
  H  H26  1  0.75556000  0.99594000  0.40727000  1
  H  H27  1  0.06683000  0.06683000  0.43317000  1
  H  H28  1  0.74444000  0.99594000  0.09273000  1
  H  H29  1  0.43317000  0.06683000  0.06683000  1
  H  H30  1  0.75556000  0.50406000  0.09273000  1
  H  H31  1  0.06683000  0.43317000  0.06683000  1
  H  H32  1  0.40727000  0.74444000  0.50406000  1
  H  H33  1  0.09273000  0.75556000  0.50406000  1
  H  H34  1  0.40727000  0.75556000  0.99594000  1
  H  H35  1  0.09273000  0.74444000  0.99594000  1
  H  H36  1  0.50406000  0.40727000  0.74444000  1
  H  H37  1  0.50406000  0.09273000  0.75556000  1
  H  H38  1  0.99594000  0.40727000  0.75556000  1
  H  H39  1  0.99594000  0.09273000  0.74444000  1
  H  H40  1  0.25556000  0.49594000  0.59273000  1
  H  H41  1  0.56683000  0.56683000  0.56683000  1
  H  H42  1  0.24444000  0.00406000  0.59273000  1
  H  H43  1  0.93317000  0.93317000  0.56683000  1
  H  H44  1  0.25556000  0.00406000  0.90727000  1
  H  H45  1  0.56683000  0.93317000  0.93317000  1
  H  H46  1  0.24444000  0.49594000  0.90727000  1
  H  H47  1  0.93317000  0.56683000  0.93317000  1
  H  H48  1  0.59273000  0.25556000  0.49594000  1
  H  H49  1  0.90727000  0.24444000  0.49594000  1
  H  H50  1  0.59273000  0.24444000  0.00406000  1
  H  H51  1  0.90727000  0.25556000  0.00406000  1
  H  H52  1  0.49594000  0.59273000  0.25556000  1
  H  H53  1  0.49594000  0.90727000  0.24444000  1
  H  H54  1  0.00406000  0.59273000  0.24444000  1
  H  H55  1  0.00406000  0.90727000  0.25556000  1
  C  C56  1  0.38371000  0.50710000  0.38310000  1
  C  C57  1  0.34542000  0.52290000  0.33869000  1
  C  C58  1  0.35990000  0.52000000  0.27829000  1
  C  C59  1  0.27340000  0.52600000  0.26970000  1
  C  C60  1  0.62763000  0.50350000  0.38890000  1
  C  C61  1  0.67221000  0.48640000  0.35132000  1
  C  C62  1  0.73630000  0.49900000  0.27727000  1
  C  C63  1  0.73150000  0.49900000  0.36450000  1
  C  C64  1  0.11629000  0.99290000  0.38310000  1
  C  C65  1  0.15458000  0.97710000  0.33869000  1
  C  C66  1  0.14010000  0.98000000  0.27829000  1
  C  C67  1  0.22660000  0.97400000  0.26970000  1
  C  C68  1  0.87237000  0.99650000  0.38890000  1
  C  C69  1  0.82779000  0.01360000  0.35132000  1
  C  C70  1  0.76370000  0.00100000  0.27727000  1
  C  C71  1  0.76850000  0.00100000  0.36450000  1
  C  C72  1  0.38371000  0.99290000  0.11690000  1
  C  C73  1  0.34542000  0.97710000  0.16131000  1
  C  C74  1  0.35990000  0.98000000  0.22171000  1
  C  C75  1  0.27340000  0.97400000  0.23030000  1
  C  C76  1  0.62763000  0.99650000  0.11110000  1
  C  C77  1  0.67221000  0.01360000  0.14868000  1
  C  C78  1  0.73630000  0.00100000  0.22273000  1
  C  C79  1  0.73150000  0.00100000  0.13550000  1
  C  C80  1  0.11629000  0.50710000  0.11690000  1
  C  C81  1  0.15458000  0.52290000  0.16131000  1
  C  C82  1  0.14010000  0.52000000  0.22171000  1
  C  C83  1  0.22660000  0.52600000  0.23030000  1
  C  C84  1  0.87237000  0.50350000  0.11110000  1
  C  C85  1  0.82779000  0.48640000  0.14868000  1
  C  C86  1  0.76370000  0.49900000  0.22273000  1
  C  C87  1  0.76850000  0.49900000  0.13550000  1
  C  C88  1  0.38310000  0.38371000  0.50710000  1
  C  C89  1  0.33869000  0.34542000  0.52290000  1
  C  C90  1  0.27829000  0.35990000  0.52000000  1
  C  C91  1  0.26970000  0.27340000  0.52600000  1
  C  C92  1  0.38890000  0.62763000  0.50350000  1
  C  C93  1  0.35132000  0.67221000  0.48640000  1
  C  C94  1  0.27727000  0.73630000  0.49900000  1
  C  C95  1  0.36450000  0.73150000  0.49900000  1
  C  C96  1  0.11690000  0.11629000  0.50710000  1
  C  C97  1  0.16131000  0.15458000  0.52290000  1
  C  C98  1  0.22171000  0.14010000  0.52000000  1
  C  C99  1  0.23030000  0.22660000  0.52600000  1
  C  C100  1  0.11110000  0.87237000  0.50350000  1
  C  C101  1  0.14868000  0.82779000  0.48640000  1
  C  C102  1  0.22273000  0.76370000  0.49900000  1
  C  C103  1  0.13550000  0.76850000  0.49900000  1
  C  C104  1  0.38310000  0.11629000  0.99290000  1
  C  C105  1  0.33869000  0.15458000  0.97710000  1
  C  C106  1  0.27829000  0.14010000  0.98000000  1
  C  C107  1  0.26970000  0.22660000  0.97400000  1
  C  C108  1  0.38890000  0.87237000  0.99650000  1
  C  C109  1  0.35132000  0.82779000  0.01360000  1
  C  C110  1  0.27727000  0.76370000  0.00100000  1
  C  C111  1  0.36450000  0.76850000  0.00100000  1
  C  C112  1  0.11690000  0.38371000  0.99290000  1
  C  C113  1  0.16131000  0.34542000  0.97710000  1
  C  C114  1  0.22171000  0.35990000  0.98000000  1
  C  C115  1  0.23030000  0.27340000  0.97400000  1
  C  C116  1  0.11110000  0.62763000  0.99650000  1
  C  C117  1  0.14868000  0.67221000  0.01360000  1
  C  C118  1  0.22273000  0.73630000  0.00100000  1
  C  C119  1  0.13550000  0.73150000  0.00100000  1
  C  C120  1  0.50710000  0.38310000  0.38371000  1
  C  C121  1  0.52290000  0.33869000  0.34542000  1
  C  C122  1  0.52000000  0.27829000  0.35990000  1
  C  C123  1  0.52600000  0.26970000  0.27340000  1
  C  C124  1  0.50350000  0.38890000  0.62763000  1
  C  C125  1  0.48640000  0.35132000  0.67221000  1
  C  C126  1  0.49900000  0.27727000  0.73630000  1
  C  C127  1  0.49900000  0.36450000  0.73150000  1
  C  C128  1  0.50710000  0.11690000  0.11629000  1
  C  C129  1  0.52290000  0.16131000  0.15458000  1
  C  C130  1  0.52000000  0.22171000  0.14010000  1
  C  C131  1  0.52600000  0.23030000  0.22660000  1
  C  C132  1  0.50350000  0.11110000  0.87237000  1
  C  C133  1  0.48640000  0.14868000  0.82779000  1
  C  C134  1  0.49900000  0.22273000  0.76370000  1
  C  C135  1  0.49900000  0.13550000  0.76850000  1
  C  C136  1  0.99290000  0.38310000  0.11629000  1
  C  C137  1  0.97710000  0.33869000  0.15458000  1
  C  C138  1  0.98000000  0.27829000  0.14010000  1
  C  C139  1  0.97400000  0.26970000  0.22660000  1
  C  C140  1  0.99650000  0.38890000  0.87237000  1
  C  C141  1  0.01360000  0.35132000  0.82779000  1
  C  C142  1  0.00100000  0.27727000  0.76370000  1
  C  C143  1  0.00100000  0.36450000  0.76850000  1
  C  C144  1  0.99290000  0.11690000  0.38371000  1
  C  C145  1  0.97710000  0.16131000  0.34542000  1
  C  C146  1  0.98000000  0.22171000  0.35990000  1
  C  C147  1  0.97400000  0.23030000  0.27340000  1
  C  C148  1  0.99650000  0.11110000  0.62763000  1
  C  C149  1  0.01360000  0.14868000  0.67221000  1
  C  C150  1  0.00100000  0.22273000  0.73630000  1
  C  C151  1  0.00100000  0.13550000  0.73150000  1
  C  C152  1  0.61629000  0.49290000  0.61690000  1
  C  C153  1  0.65458000  0.47710000  0.66131000  1
  C  C154  1  0.64010000  0.48000000  0.72171000  1
  C  C155  1  0.72660000  0.47400000  0.73030000  1
  C  C156  1  0.37237000  0.49650000  0.61110000  1
  C  C157  1  0.32779000  0.51360000  0.64868000  1
  C  C158  1  0.26370000  0.50100000  0.72273000  1
  C  C159  1  0.26850000  0.50100000  0.63550000  1
  C  C160  1  0.88371000  0.00710000  0.61690000  1
  C  C161  1  0.84542000  0.02290000  0.66131000  1
  C  C162  1  0.85990000  0.02000000  0.72171000  1
  C  C163  1  0.77340000  0.02600000  0.73030000  1
  C  C164  1  0.12763000  0.00350000  0.61110000  1
  C  C165  1  0.17221000  0.98640000  0.64868000  1
  C  C166  1  0.23630000  0.99900000  0.72273000  1
  C  C167  1  0.23150000  0.99900000  0.63550000  1
  C  C168  1  0.61629000  0.00710000  0.88310000  1
  C  C169  1  0.65458000  0.02290000  0.83869000  1
  C  C170  1  0.64010000  0.02000000  0.77829000  1
  C  C171  1  0.72660000  0.02600000  0.76970000  1
  C  C172  1  0.37237000  0.00350000  0.88890000  1
  C  C173  1  0.32779000  0.98640000  0.85132000  1
  C  C174  1  0.26370000  0.99900000  0.77727000  1
  C  C175  1  0.26850000  0.99900000  0.86450000  1
  C  C176  1  0.88371000  0.49290000  0.88310000  1
  C  C177  1  0.84542000  0.47710000  0.83869000  1
  C  C178  1  0.85990000  0.48000000  0.77829000  1
  C  C179  1  0.77340000  0.47400000  0.76970000  1
  C  C180  1  0.12763000  0.49650000  0.88890000  1
  C  C181  1  0.17221000  0.51360000  0.85132000  1
  C  C182  1  0.23630000  0.50100000  0.77727000  1
  C  C183  1  0.23150000  0.50100000  0.86450000  1
  C  C184  1  0.61690000  0.61629000  0.49290000  1
  C  C185  1  0.66131000  0.65458000  0.47710000  1
  C  C186  1  0.72171000  0.64010000  0.48000000  1
  C  C187  1  0.73030000  0.72660000  0.47400000  1
  C  C188  1  0.61110000  0.37237000  0.49650000  1
  C  C189  1  0.64868000  0.32779000  0.51360000  1
  C  C190  1  0.72273000  0.26370000  0.50100000  1
  C  C191  1  0.63550000  0.26850000  0.50100000  1
  C  C192  1  0.88310000  0.88371000  0.49290000  1
  C  C193  1  0.83869000  0.84542000  0.47710000  1
  C  C194  1  0.77829000  0.85990000  0.48000000  1
  C  C195  1  0.76970000  0.77340000  0.47400000  1
  C  C196  1  0.88890000  0.12763000  0.49650000  1
  C  C197  1  0.85132000  0.17221000  0.51360000  1
  C  C198  1  0.77727000  0.23630000  0.50100000  1
  C  C199  1  0.86450000  0.23150000  0.50100000  1
  C  C200  1  0.61690000  0.88371000  0.00710000  1
  C  C201  1  0.66131000  0.84542000  0.02290000  1
  C  C202  1  0.72171000  0.85990000  0.02000000  1
  C  C203  1  0.73030000  0.77340000  0.02600000  1
  C  C204  1  0.61110000  0.12763000  0.00350000  1
  C  C205  1  0.64868000  0.17221000  0.98640000  1
  C  C206  1  0.72273000  0.23630000  0.99900000  1
  C  C207  1  0.63550000  0.23150000  0.99900000  1
  C  C208  1  0.88310000  0.61629000  0.00710000  1
  C  C209  1  0.83869000  0.65458000  0.02290000  1
  C  C210  1  0.77829000  0.64010000  0.02000000  1
  C  C211  1  0.76970000  0.72660000  0.02600000  1
  C  C212  1  0.88890000  0.37237000  0.00350000  1
  C  C213  1  0.85132000  0.32779000  0.98640000  1
  C  C214  1  0.77727000  0.26370000  0.99900000  1
  C  C215  1  0.86450000  0.26850000  0.99900000  1
  C  C216  1  0.49290000  0.61690000  0.61629000  1
  C  C217  1  0.47710000  0.66131000  0.65458000  1
  C  C218  1  0.48000000  0.72171000  0.64010000  1
  C  C219  1  0.47400000  0.73030000  0.72660000  1
  C  C220  1  0.49650000  0.61110000  0.37237000  1
  C  C221  1  0.51360000  0.64868000  0.32779000  1
  C  C222  1  0.50100000  0.72273000  0.26370000  1
  C  C223  1  0.50100000  0.63550000  0.26850000  1
  C  C224  1  0.49290000  0.88310000  0.88371000  1
  C  C225  1  0.47710000  0.83869000  0.84542000  1
  C  C226  1  0.48000000  0.77829000  0.85990000  1
  C  C227  1  0.47400000  0.76970000  0.77340000  1
  C  C228  1  0.49650000  0.88890000  0.12763000  1
  C  C229  1  0.51360000  0.85132000  0.17221000  1
  C  C230  1  0.50100000  0.77727000  0.23630000  1
  C  C231  1  0.50100000  0.86450000  0.23150000  1
  C  C232  1  0.00710000  0.61690000  0.88371000  1
  C  C233  1  0.02290000  0.66131000  0.84542000  1
  C  C234  1  0.02000000  0.72171000  0.85990000  1
  C  C235  1  0.02600000  0.73030000  0.77340000  1
  C  C236  1  0.00350000  0.61110000  0.12763000  1
  C  C237  1  0.98640000  0.64868000  0.17221000  1
  C  C238  1  0.99900000  0.72273000  0.23630000  1
  C  C239  1  0.99900000  0.63550000  0.23150000  1
  C  C240  1  0.00710000  0.88310000  0.61629000  1
  C  C241  1  0.02290000  0.83869000  0.65458000  1
  C  C242  1  0.02000000  0.77829000  0.64010000  1
  C  C243  1  0.02600000  0.76970000  0.72660000  1
  C  C244  1  0.00350000  0.88890000  0.37237000  1
  C  C245  1  0.98640000  0.85132000  0.32779000  1
  C  C246  1  0.99900000  0.77727000  0.26370000  1
  C  C247  1  0.99900000  0.86450000  0.26850000  1
  S  S248  1  0.28060000  0.51950000  0.33320000  1
  S  S249  1  0.67340000  0.49210000  0.28670000  1
  S  S250  1  0.21940000  0.98050000  0.33320000  1
  S  S251  1  0.82660000  0.00790000  0.28670000  1
  S  S252  1  0.28060000  0.98050000  0.16680000  1
  S  S253  1  0.67340000  0.00790000  0.21330000  1
  S  S254  1  0.21940000  0.51950000  0.16680000  1
  S  S255  1  0.82660000  0.49210000  0.21330000  1
  S  S256  1  0.33320000  0.28060000  0.51950000  1
  S  S257  1  0.28670000  0.67340000  0.49210000  1
  S  S258  1  0.16680000  0.21940000  0.51950000  1
  S  S259  1  0.21330000  0.82660000  0.49210000  1
  S  S260  1  0.33320000  0.21940000  0.98050000  1
  S  S261  1  0.28670000  0.82660000  0.00790000  1
  S  S262  1  0.16680000  0.28060000  0.98050000  1
  S  S263  1  0.21330000  0.67340000  0.00790000  1
  S  S264  1  0.51950000  0.33320000  0.28060000  1
  S  S265  1  0.49210000  0.28670000  0.67340000  1
  S  S266  1  0.51950000  0.16680000  0.21940000  1
  S  S267  1  0.49210000  0.21330000  0.82660000  1
  S  S268  1  0.98050000  0.33320000  0.21940000  1
  S  S269  1  0.00790000  0.28670000  0.82660000  1
  S  S270  1  0.98050000  0.16680000  0.28060000  1
  S  S271  1  0.00790000  0.21330000  0.67340000  1
  S  S272  1  0.71940000  0.48050000  0.66680000  1
  S  S273  1  0.32660000  0.50790000  0.71330000  1
  S  S274  1  0.78060000  0.01950000  0.66680000  1
  S  S275  1  0.17340000  0.99210000  0.71330000  1
  S  S276  1  0.71940000  0.01950000  0.83320000  1
  S  S277  1  0.32660000  0.99210000  0.78670000  1
  S  S278  1  0.78060000  0.48050000  0.83320000  1
  S  S279  1  0.17340000  0.50790000  0.78670000  1
  S  S280  1  0.66680000  0.71940000  0.48050000  1
  S  S281  1  0.71330000  0.32660000  0.50790000  1
  S  S282  1  0.83320000  0.78060000  0.48050000  1
  S  S283  1  0.78670000  0.17340000  0.50790000  1
  S  S284  1  0.66680000  0.78060000  0.01950000  1
  S  S285  1  0.71330000  0.17340000  0.99210000  1
  S  S286  1  0.83320000  0.71940000  0.01950000  1
  S  S287  1  0.78670000  0.32660000  0.99210000  1
  S  S288  1  0.48050000  0.66680000  0.71940000  1
  S  S289  1  0.50790000  0.71330000  0.32660000  1
  S  S290  1  0.48050000  0.83320000  0.78060000  1
  S  S291  1  0.50790000  0.78670000  0.17340000  1
  S  S292  1  0.01950000  0.66680000  0.78060000  1
  S  S293  1  0.99210000  0.71330000  0.17340000  1
  S  S294  1  0.01950000  0.83320000  0.71940000  1
  S  S295  1  0.99210000  0.78670000  0.32660000  1
  N  N296  1  0.31957000  0.53360000  0.24520000  1
  N  N297  1  0.76390000  0.50300000  0.32192000  1
  N  N298  1  0.18043000  0.96640000  0.24520000  1
  N  N299  1  0.73610000  0.99700000  0.32192000  1
  N  N300  1  0.31957000  0.96640000  0.25480000  1
  N  N301  1  0.76390000  0.99700000  0.17808000  1
  N  N302  1  0.18043000  0.53360000  0.25480000  1
  N  N303  1  0.73610000  0.50300000  0.17808000  1
  N  N304  1  0.24520000  0.31957000  0.53360000  1
  N  N305  1  0.32192000  0.76390000  0.50300000  1
  N  N306  1  0.25480000  0.18043000  0.53360000  1
  N  N307  1  0.17808000  0.73610000  0.50300000  1
  N  N308  1  0.24520000  0.18043000  0.96640000  1
  N  N309  1  0.32192000  0.73610000  0.99700000  1
  N  N310  1  0.25480000  0.31957000  0.96640000  1
  N  N311  1  0.17808000  0.76390000  0.99700000  1
  N  N312  1  0.53360000  0.24520000  0.31957000  1
  N  N313  1  0.50300000  0.32192000  0.76390000  1
  N  N314  1  0.53360000  0.25480000  0.18043000  1
  N  N315  1  0.50300000  0.17808000  0.73610000  1
  N  N316  1  0.96640000  0.24520000  0.18043000  1
  N  N317  1  0.99700000  0.32192000  0.73610000  1
  N  N318  1  0.96640000  0.25480000  0.31957000  1
  N  N319  1  0.99700000  0.17808000  0.76390000  1
  N  N320  1  0.68043000  0.46640000  0.75480000  1
  N  N321  1  0.23610000  0.49700000  0.67808000  1
  N  N322  1  0.81957000  0.03360000  0.75480000  1
  N  N323  1  0.26390000  0.00300000  0.67808000  1
  N  N324  1  0.68043000  0.03360000  0.74520000  1
  N  N325  1  0.23610000  0.00300000  0.82192000  1
  N  N326  1  0.81957000  0.46640000  0.74520000  1
  N  N327  1  0.26390000  0.49700000  0.82192000  1
  N  N328  1  0.75480000  0.68043000  0.46640000  1
  N  N329  1  0.67808000  0.23610000  0.49700000  1
  N  N330  1  0.74520000  0.81957000  0.46640000  1
  N  N331  1  0.82192000  0.26390000  0.49700000  1
  N  N332  1  0.75480000  0.81957000  0.03360000  1
  N  N333  1  0.67808000  0.26390000  0.00300000  1
  N  N334  1  0.74520000  0.68043000  0.03360000  1
  N  N335  1  0.82192000  0.23610000  0.00300000  1
  N  N336  1  0.46640000  0.75480000  0.68043000  1
  N  N337  1  0.49700000  0.67808000  0.23610000  1
  N  N338  1  0.46640000  0.74520000  0.81957000  1
  N  N339  1  0.49700000  0.82192000  0.26390000  1
  N  N340  1  0.03360000  0.75480000  0.81957000  1
  N  N341  1  0.00300000  0.67808000  0.26390000  1
  N  N342  1  0.03360000  0.74520000  0.68043000  1
  N  N343  1  0.00300000  0.82192000  0.23610000  1
  O  O344  1  0.43024000  0.52370000  0.37420000  1
  O  O345  1  0.36000000  0.50330000  0.42740000  1
  O  O346  1  0.58460000  0.48010000  0.37810000  1
  O  O347  1  0.64620000  0.51500000  0.43450000  1
  O  O348  1  0.44530000  0.54670000  0.43860000  1
  O  O349  1  0.45217000  0.45217000  0.45217000  1
  O  O350  1  0.06976000  0.97630000  0.37420000  1
  O  O351  1  0.14000000  0.99670000  0.42740000  1
  O  O352  1  0.91540000  0.01990000  0.37810000  1
  O  O353  1  0.85380000  0.98500000  0.43450000  1
  O  O354  1  0.05470000  0.95330000  0.43860000  1
  O  O355  1  0.04783000  0.04783000  0.45217000  1
  O  O356  1  0.43024000  0.97630000  0.12580000  1
  O  O357  1  0.36000000  0.99670000  0.07260000  1
  O  O358  1  0.58460000  0.01990000  0.12190000  1
  O  O359  1  0.64620000  0.98500000  0.06550000  1
  O  O360  1  0.44530000  0.95330000  0.06140000  1
  O  O361  1  0.45217000  0.04783000  0.04783000  1
  O  O362  1  0.06976000  0.52370000  0.12580000  1
  O  O363  1  0.14000000  0.50330000  0.07260000  1
  O  O364  1  0.91540000  0.48010000  0.12190000  1
  O  O365  1  0.85380000  0.51500000  0.06550000  1
  O  O366  1  0.05470000  0.54670000  0.06140000  1
  O  O367  1  0.04783000  0.45217000  0.04783000  1
  O  O368  1  0.37420000  0.43024000  0.52370000  1
  O  O369  1  0.42740000  0.36000000  0.50330000  1
  O  O370  1  0.37810000  0.58460000  0.48010000  1
  O  O371  1  0.43450000  0.64620000  0.51500000  1
  O  O372  1  0.43860000  0.44530000  0.54670000  1
  O  O373  1  0.12580000  0.06976000  0.52370000  1
  O  O374  1  0.07260000  0.14000000  0.50330000  1
  O  O375  1  0.12190000  0.91540000  0.48010000  1
  O  O376  1  0.06550000  0.85380000  0.51500000  1
  O  O377  1  0.06140000  0.05470000  0.54670000  1
  O  O378  1  0.37420000  0.06976000  0.97630000  1
  O  O379  1  0.42740000  0.14000000  0.99670000  1
  O  O380  1  0.37810000  0.91540000  0.01990000  1
  O  O381  1  0.43450000  0.85380000  0.98500000  1
  O  O382  1  0.43860000  0.05470000  0.95330000  1
  O  O383  1  0.12580000  0.43024000  0.97630000  1
  O  O384  1  0.07260000  0.36000000  0.99670000  1
  O  O385  1  0.12190000  0.58460000  0.01990000  1
  O  O386  1  0.06550000  0.64620000  0.98500000  1
  O  O387  1  0.06140000  0.44530000  0.95330000  1
  O  O388  1  0.52370000  0.37420000  0.43024000  1
  O  O389  1  0.50330000  0.42740000  0.36000000  1
  O  O390  1  0.48010000  0.37810000  0.58460000  1
  O  O391  1  0.51500000  0.43450000  0.64620000  1
  O  O392  1  0.54670000  0.43860000  0.44530000  1
  O  O393  1  0.52370000  0.12580000  0.06976000  1
  O  O394  1  0.50330000  0.07260000  0.14000000  1
  O  O395  1  0.48010000  0.12190000  0.91540000  1
  O  O396  1  0.51500000  0.06550000  0.85380000  1
  O  O397  1  0.54670000  0.06140000  0.05470000  1
  O  O398  1  0.97630000  0.37420000  0.06976000  1
  O  O399  1  0.99670000  0.42740000  0.14000000  1
  O  O400  1  0.01990000  0.37810000  0.91540000  1
  O  O401  1  0.98500000  0.43450000  0.85380000  1
  O  O402  1  0.95330000  0.43860000  0.05470000  1
  O  O403  1  0.97630000  0.12580000  0.43024000  1
  O  O404  1  0.99670000  0.07260000  0.36000000  1
  O  O405  1  0.01990000  0.12190000  0.58460000  1
  O  O406  1  0.98500000  0.06550000  0.64620000  1
  O  O407  1  0.95330000  0.06140000  0.44530000  1
  O  O408  1  0.56976000  0.47630000  0.62580000  1
  O  O409  1  0.64000000  0.49670000  0.57260000  1
  O  O410  1  0.41540000  0.51990000  0.62190000  1
  O  O411  1  0.35380000  0.48500000  0.56550000  1
  O  O412  1  0.55470000  0.45330000  0.56140000  1
  O  O413  1  0.54783000  0.54783000  0.54783000  1
  O  O414  1  0.93024000  0.02370000  0.62580000  1
  O  O415  1  0.86000000  0.00330000  0.57260000  1
  O  O416  1  0.08460000  0.98010000  0.62190000  1
  O  O417  1  0.14620000  0.01500000  0.56550000  1
  O  O418  1  0.94530000  0.04670000  0.56140000  1
  O  O419  1  0.95217000  0.95217000  0.54783000  1
  O  O420  1  0.56976000  0.02370000  0.87420000  1
  O  O421  1  0.64000000  0.00330000  0.92740000  1
  O  O422  1  0.41540000  0.98010000  0.87810000  1
  O  O423  1  0.35380000  0.01500000  0.93450000  1
  O  O424  1  0.55470000  0.04670000  0.93860000  1
  O  O425  1  0.54783000  0.95217000  0.95217000  1
  O  O426  1  0.93024000  0.47630000  0.87420000  1
  O  O427  1  0.86000000  0.49670000  0.92740000  1
  O  O428  1  0.08460000  0.51990000  0.87810000  1
  O  O429  1  0.14620000  0.48500000  0.93450000  1
  O  O430  1  0.94530000  0.45330000  0.93860000  1
  O  O431  1  0.95217000  0.54783000  0.95217000  1
  O  O432  1  0.62580000  0.56976000  0.47630000  1
  O  O433  1  0.57260000  0.64000000  0.49670000  1
  O  O434  1  0.62190000  0.41540000  0.51990000  1
  O  O435  1  0.56550000  0.35380000  0.48500000  1
  O  O436  1  0.56140000  0.55470000  0.45330000  1
  O  O437  1  0.87420000  0.93024000  0.47630000  1
  O  O438  1  0.92740000  0.86000000  0.49670000  1
  O  O439  1  0.87810000  0.08460000  0.51990000  1
  O  O440  1  0.93450000  0.14620000  0.48500000  1
  O  O441  1  0.93860000  0.94530000  0.45330000  1
  O  O442  1  0.62580000  0.93024000  0.02370000  1
  O  O443  1  0.57260000  0.86000000  0.00330000  1
  O  O444  1  0.62190000  0.08460000  0.98010000  1
  O  O445  1  0.56550000  0.14620000  0.01500000  1
  O  O446  1  0.56140000  0.94530000  0.04670000  1
  O  O447  1  0.87420000  0.56976000  0.02370000  1
  O  O448  1  0.92740000  0.64000000  0.00330000  1
  O  O449  1  0.87810000  0.41540000  0.98010000  1
  O  O450  1  0.93450000  0.35380000  0.01500000  1
  O  O451  1  0.93860000  0.55470000  0.04670000  1
  O  O452  1  0.47630000  0.62580000  0.56976000  1
  O  O453  1  0.49670000  0.57260000  0.64000000  1
  O  O454  1  0.51990000  0.62190000  0.41540000  1
  O  O455  1  0.48500000  0.56550000  0.35380000  1
  O  O456  1  0.45330000  0.56140000  0.55470000  1
  O  O457  1  0.47630000  0.87420000  0.93024000  1
  O  O458  1  0.49670000  0.92740000  0.86000000  1
  O  O459  1  0.51990000  0.87810000  0.08460000  1
  O  O460  1  0.48500000  0.93450000  0.14620000  1
  O  O461  1  0.45330000  0.93860000  0.94530000  1
  O  O462  1  0.02370000  0.62580000  0.93024000  1
  O  O463  1  0.00330000  0.57260000  0.86000000  1
  O  O464  1  0.98010000  0.62190000  0.08460000  1
  O  O465  1  0.01500000  0.56550000  0.14620000  1
  O  O466  1  0.04670000  0.56140000  0.94530000  1
  O  O467  1  0.02370000  0.87420000  0.56976000  1
  O  O468  1  0.00330000  0.92740000  0.64000000  1
  O  O469  1  0.98010000  0.87810000  0.41540000  1
  O  O470  1  0.01500000  0.93450000  0.35380000  1
  O  O471  1  0.04670000  0.93860000  0.55470000  1
