# generated using pymatgen
data_Zr3H30(C33O8)2
_symmetry_space_group_name_H-M   'P 1'
_cell_length_a   21.71100000
_cell_length_b   33.10200000
_cell_length_c   33.10200000
_cell_angle_alpha   90.00000000
_cell_angle_beta   90.00000000
_cell_angle_gamma   90.00000000
_symmetry_Int_Tables_number   1
_chemical_formula_structural   Zr3H30(C33O8)2
_chemical_formula_sum   'Zr12 H120 C264 O64'
_cell_volume   23789.66333324
_cell_formula_units_Z   4
loop_
 _symmetry_equiv_pos_site_id
 _symmetry_equiv_pos_as_xyz
  1  'x, y, z'
loop_
 _atom_site_type_symbol
 _atom_site_label
 _atom_site_symmetry_multiplicity
 _atom_site_fract_x
 _atom_site_fract_y
 _atom_site_fract_z
 _atom_site_occupancy
  Zr  Zr0  1  0.11330000  0.50000000  0.50000000  1
  Zr  Zr1  1  0.61330000  0.00000000  0.00000000  1
  Zr  Zr2  1  0.88670000  0.50000000  0.50000000  1
  Zr  Zr3  1  0.38670000  0.00000000  0.00000000  1
  Zr  Zr4  1  0.00000000  0.54090000  0.43671000  1
  Zr  Zr5  1  0.50000000  0.04090000  0.93671000  1
  Zr  Zr6  1  0.00000000  0.45910000  0.56329000  1
  Zr  Zr7  1  0.50000000  0.95910000  0.06329000  1
  Zr  Zr8  1  0.00000000  0.56329000  0.54090000  1
  Zr  Zr9  1  0.50000000  0.06329000  0.04090000  1
  Zr  Zr10  1  0.00000000  0.43671000  0.45910000  1
  Zr  Zr11  1  0.50000000  0.93671000  0.95910000  1
  H  H12  1  0.14383000  0.64329000  0.59671000  1
  H  H13  1  0.22249000  0.68179000  0.62518000  1
  H  H14  1  0.34892000  0.60896000  0.57338000  1
  H  H15  1  0.27026000  0.57047000  0.54491000  1
  H  H16  1  0.40666000  0.74630000  0.68604000  1
  H  H17  1  0.44240000  0.82375000  0.80957000  1
  H  H18  1  0.45647000  0.87334000  0.85866000  1
  H  H19  1  0.61313000  0.90885000  0.80347000  1
  H  H20  1  0.59906000  0.85925000  0.75439000  1
  H  H21  1  0.64383000  0.14329000  0.09671000  1
  H  H22  1  0.72249000  0.18179000  0.12518000  1
  H  H23  1  0.84892000  0.10896000  0.07338000  1
  H  H24  1  0.77026000  0.07047000  0.04491000  1
  H  H25  1  0.90666000  0.24630000  0.18604000  1
  H  H26  1  0.94240000  0.32375000  0.30957000  1
  H  H27  1  0.95647000  0.37334000  0.35866000  1
  H  H28  1  0.11313000  0.40885000  0.30347000  1
  H  H29  1  0.09906000  0.35925000  0.25439000  1
  H  H30  1  0.14383000  0.35671000  0.40329000  1
  H  H31  1  0.22249000  0.31821000  0.37482000  1
  H  H32  1  0.34892000  0.39104000  0.42662000  1
  H  H33  1  0.27026000  0.42953000  0.45509000  1
  H  H34  1  0.40666000  0.25370000  0.31396000  1
  H  H35  1  0.44240000  0.17625000  0.19043000  1
  H  H36  1  0.45647000  0.12666000  0.14134000  1
  H  H37  1  0.61313000  0.09115000  0.19653000  1
  H  H38  1  0.59906000  0.14075000  0.24561000  1
  H  H39  1  0.64383000  0.85671000  0.90329000  1
  H  H40  1  0.72249000  0.81821000  0.87482000  1
  H  H41  1  0.84892000  0.89104000  0.92662000  1
  H  H42  1  0.77026000  0.92953000  0.95509000  1
  H  H43  1  0.90666000  0.75370000  0.81396000  1
  H  H44  1  0.14383000  0.40329000  0.64329000  1
  H  H45  1  0.22249000  0.37482000  0.68179000  1
  H  H46  1  0.34892000  0.42662000  0.60896000  1
  H  H47  1  0.27026000  0.45509000  0.57047000  1
  H  H48  1  0.40666000  0.31396000  0.74630000  1
  H  H49  1  0.44240000  0.19043000  0.82375000  1
  H  H50  1  0.45647000  0.14134000  0.87334000  1
  H  H51  1  0.61313000  0.19653000  0.90885000  1
  H  H52  1  0.59906000  0.24561000  0.85925000  1
  H  H53  1  0.64383000  0.90329000  0.14329000  1
  H  H54  1  0.72249000  0.87482000  0.18179000  1
  H  H55  1  0.84892000  0.92662000  0.10896000  1
  H  H56  1  0.77026000  0.95509000  0.07047000  1
  H  H57  1  0.90666000  0.81396000  0.24630000  1
  H  H58  1  0.94240000  0.69043000  0.32375000  1
  H  H59  1  0.95647000  0.64134000  0.37334000  1
  H  H60  1  0.11313000  0.69653000  0.40885000  1
  H  H61  1  0.09906000  0.74561000  0.35925000  1
  H  H62  1  0.14383000  0.59671000  0.35671000  1
  H  H63  1  0.22249000  0.62518000  0.31821000  1
  H  H64  1  0.34892000  0.57338000  0.39104000  1
  H  H65  1  0.27026000  0.54491000  0.42953000  1
  H  H66  1  0.40666000  0.68604000  0.25370000  1
  H  H67  1  0.64383000  0.09671000  0.85671000  1
  H  H68  1  0.72249000  0.12518000  0.81821000  1
  H  H69  1  0.84892000  0.07338000  0.89104000  1
  H  H70  1  0.77026000  0.04491000  0.92953000  1
  H  H71  1  0.90666000  0.18604000  0.75370000  1
  H  H72  1  0.85617000  0.35671000  0.40329000  1
  H  H73  1  0.77751000  0.31821000  0.37482000  1
  H  H74  1  0.65108000  0.39104000  0.42662000  1
  H  H75  1  0.72974000  0.42953000  0.45509000  1
  H  H76  1  0.59334000  0.25370000  0.31396000  1
  H  H77  1  0.35617000  0.85671000  0.90329000  1
  H  H78  1  0.27751000  0.81821000  0.87482000  1
  H  H79  1  0.15108000  0.89104000  0.92662000  1
  H  H80  1  0.22974000  0.92953000  0.95509000  1
  H  H81  1  0.09334000  0.75370000  0.81396000  1
  H  H82  1  0.05760000  0.67625000  0.69043000  1
  H  H83  1  0.04353000  0.62666000  0.64134000  1
  H  H84  1  0.88687000  0.59115000  0.69653000  1
  H  H85  1  0.90094000  0.64075000  0.74561000  1
  H  H86  1  0.85617000  0.64329000  0.59671000  1
  H  H87  1  0.77751000  0.68179000  0.62518000  1
  H  H88  1  0.65108000  0.60896000  0.57338000  1
  H  H89  1  0.72974000  0.57047000  0.54491000  1
  H  H90  1  0.59334000  0.74630000  0.68604000  1
  H  H91  1  0.35617000  0.14329000  0.09671000  1
  H  H92  1  0.27751000  0.18179000  0.12518000  1
  H  H93  1  0.15108000  0.10896000  0.07338000  1
  H  H94  1  0.22974000  0.07047000  0.04491000  1
  H  H95  1  0.09334000  0.24630000  0.18604000  1
  H  H96  1  0.85617000  0.59671000  0.35671000  1
  H  H97  1  0.77751000  0.62518000  0.31821000  1
  H  H98  1  0.65108000  0.57338000  0.39104000  1
  H  H99  1  0.72974000  0.54491000  0.42953000  1
  H  H100  1  0.59334000  0.68604000  0.25370000  1
  H  H101  1  0.55760000  0.80957000  0.17625000  1
  H  H102  1  0.54353000  0.85866000  0.12666000  1
  H  H103  1  0.38687000  0.80347000  0.09115000  1
  H  H104  1  0.40094000  0.75439000  0.14075000  1
  H  H105  1  0.35617000  0.09671000  0.85671000  1
  H  H106  1  0.27751000  0.12518000  0.81821000  1
  H  H107  1  0.15108000  0.07338000  0.89104000  1
  H  H108  1  0.22974000  0.04491000  0.92953000  1
  H  H109  1  0.09334000  0.18604000  0.75370000  1
  H  H110  1  0.05760000  0.30957000  0.67625000  1
  H  H111  1  0.04353000  0.35866000  0.62666000  1
  H  H112  1  0.88687000  0.30347000  0.59115000  1
  H  H113  1  0.90094000  0.25439000  0.64075000  1
  H  H114  1  0.85617000  0.40329000  0.64329000  1
  H  H115  1  0.77751000  0.37482000  0.68179000  1
  H  H116  1  0.65108000  0.42662000  0.60896000  1
  H  H117  1  0.72974000  0.45509000  0.57047000  1
  H  H118  1  0.59334000  0.31396000  0.74630000  1
  H  H119  1  0.35617000  0.90329000  0.14329000  1
  H  H120  1  0.27751000  0.87482000  0.18179000  1
  H  H121  1  0.15108000  0.92662000  0.10896000  1
  H  H122  1  0.22974000  0.95509000  0.07047000  1
  H  H123  1  0.09334000  0.81396000  0.24630000  1
  H  H124  1  0.50000000  0.66988000  0.61177000  1
  H  H125  1  0.00000000  0.16988000  0.11177000  1
  H  H126  1  0.50000000  0.33012000  0.38823000  1
  H  H127  1  0.00000000  0.83012000  0.88823000  1
  H  H128  1  0.50000000  0.38823000  0.66988000  1
  H  H129  1  0.00000000  0.88823000  0.16988000  1
  H  H130  1  0.50000000  0.61177000  0.33012000  1
  H  H131  1  0.00000000  0.11177000  0.83012000  1
  C  C132  1  0.14980000  0.57820000  0.55002000  1
  C  C133  1  0.19940000  0.60316000  0.56806000  1
  C  C134  1  0.18520000  0.63637000  0.59200000  1
  C  C135  1  0.23210000  0.65933000  0.60899000  1
  C  C136  1  0.29330000  0.64909000  0.60200000  1
  C  C137  1  0.30755000  0.61590000  0.57810000  1
  C  C138  1  0.26060000  0.59292000  0.56110000  1
  C  C139  1  0.34400000  0.67070000  0.61850000  1
  C  C140  1  0.38780000  0.68820000  0.63130000  1
  C  C141  1  0.44500000  0.70670000  0.64560000  1
  C  C142  1  0.44400000  0.73670000  0.67540000  1
  C  C143  1  0.51940000  0.83670000  0.77720000  1
  C  C144  1  0.47680000  0.84090000  0.80830000  1
  C  C145  1  0.48520000  0.87050000  0.83760000  1
  C  C146  1  0.53620000  0.89590000  0.83580000  1
  C  C147  1  0.57870000  0.89170000  0.80470000  1
  C  C148  1  0.57030000  0.86210000  0.77540000  1
  C  C149  1  0.54390000  0.92500000  0.86730000  1
  C  C150  1  0.64980000  0.07820000  0.05002000  1
  C  C151  1  0.69940000  0.10316000  0.06806000  1
  C  C152  1  0.68520000  0.13637000  0.09200000  1
  C  C153  1  0.73210000  0.15933000  0.10899000  1
  C  C154  1  0.79330000  0.14909000  0.10200000  1
  C  C155  1  0.80755000  0.11590000  0.07810000  1
  C  C156  1  0.76060000  0.09292000  0.06110000  1
  C  C157  1  0.84400000  0.17070000  0.11850000  1
  C  C158  1  0.88780000  0.18820000  0.13130000  1
  C  C159  1  0.94500000  0.20670000  0.14560000  1
  C  C160  1  0.94400000  0.23670000  0.17540000  1
  C  C161  1  0.01940000  0.33670000  0.27720000  1
  C  C162  1  0.97680000  0.34090000  0.30830000  1
  C  C163  1  0.98520000  0.37050000  0.33760000  1
  C  C164  1  0.03620000  0.39590000  0.33580000  1
  C  C165  1  0.07870000  0.39170000  0.30470000  1
  C  C166  1  0.07030000  0.36210000  0.27540000  1
  C  C167  1  0.04390000  0.42500000  0.36730000  1
  C  C168  1  0.14980000  0.42180000  0.44998000  1
  C  C169  1  0.19940000  0.39684000  0.43194000  1
  C  C170  1  0.18520000  0.36363000  0.40800000  1
  C  C171  1  0.23210000  0.34067000  0.39101000  1
  C  C172  1  0.29330000  0.35091000  0.39800000  1
  C  C173  1  0.30755000  0.38410000  0.42190000  1
  C  C174  1  0.26060000  0.40708000  0.43890000  1
  C  C175  1  0.34400000  0.32930000  0.38150000  1
  C  C176  1  0.38780000  0.31180000  0.36870000  1
  C  C177  1  0.44500000  0.29330000  0.35440000  1
  C  C178  1  0.44400000  0.26330000  0.32460000  1
  C  C179  1  0.51940000  0.16330000  0.22280000  1
  C  C180  1  0.47680000  0.15910000  0.19170000  1
  C  C181  1  0.48520000  0.12950000  0.16240000  1
  C  C182  1  0.53620000  0.10410000  0.16420000  1
  C  C183  1  0.57870000  0.10830000  0.19530000  1
  C  C184  1  0.57030000  0.13790000  0.22460000  1
  C  C185  1  0.54390000  0.07500000  0.13270000  1
  C  C186  1  0.64980000  0.92180000  0.94998000  1
  C  C187  1  0.69940000  0.89684000  0.93194000  1
  C  C188  1  0.68520000  0.86363000  0.90800000  1
  C  C189  1  0.73210000  0.84067000  0.89101000  1
  C  C190  1  0.79330000  0.85091000  0.89800000  1
  C  C191  1  0.80755000  0.88410000  0.92190000  1
  C  C192  1  0.76060000  0.90708000  0.93890000  1
  C  C193  1  0.84400000  0.82930000  0.88150000  1
  C  C194  1  0.88780000  0.81180000  0.86870000  1
  C  C195  1  0.94500000  0.79330000  0.85440000  1
  C  C196  1  0.94400000  0.76330000  0.82460000  1
  C  C197  1  0.14980000  0.44998000  0.57820000  1
  C  C198  1  0.19940000  0.43194000  0.60316000  1
  C  C199  1  0.18520000  0.40800000  0.63637000  1
  C  C200  1  0.23210000  0.39101000  0.65933000  1
  C  C201  1  0.29330000  0.39800000  0.64909000  1
  C  C202  1  0.30755000  0.42190000  0.61590000  1
  C  C203  1  0.26060000  0.43890000  0.59292000  1
  C  C204  1  0.34400000  0.38150000  0.67070000  1
  C  C205  1  0.38780000  0.36870000  0.68820000  1
  C  C206  1  0.44500000  0.35440000  0.70670000  1
  C  C207  1  0.44400000  0.32460000  0.73670000  1
  C  C208  1  0.51940000  0.22280000  0.83670000  1
  C  C209  1  0.47680000  0.19170000  0.84090000  1
  C  C210  1  0.48520000  0.16240000  0.87050000  1
  C  C211  1  0.53620000  0.16420000  0.89590000  1
  C  C212  1  0.57870000  0.19530000  0.89170000  1
  C  C213  1  0.57030000  0.22460000  0.86210000  1
  C  C214  1  0.54390000  0.13270000  0.92500000  1
  C  C215  1  0.64980000  0.94998000  0.07820000  1
  C  C216  1  0.69940000  0.93194000  0.10316000  1
  C  C217  1  0.68520000  0.90800000  0.13637000  1
  C  C218  1  0.73210000  0.89101000  0.15933000  1
  C  C219  1  0.79330000  0.89800000  0.14909000  1
  C  C220  1  0.80755000  0.92190000  0.11590000  1
  C  C221  1  0.76060000  0.93890000  0.09292000  1
  C  C222  1  0.84400000  0.88150000  0.17070000  1
  C  C223  1  0.88780000  0.86870000  0.18820000  1
  C  C224  1  0.94500000  0.85440000  0.20670000  1
  C  C225  1  0.94400000  0.82460000  0.23670000  1
  C  C226  1  0.01940000  0.72280000  0.33670000  1
  C  C227  1  0.97680000  0.69170000  0.34090000  1
  C  C228  1  0.98520000  0.66240000  0.37050000  1
  C  C229  1  0.03620000  0.66420000  0.39590000  1
  C  C230  1  0.07870000  0.69530000  0.39170000  1
  C  C231  1  0.07030000  0.72460000  0.36210000  1
  C  C232  1  0.04390000  0.63270000  0.42500000  1
  C  C233  1  0.14980000  0.55002000  0.42180000  1
  C  C234  1  0.19940000  0.56806000  0.39684000  1
  C  C235  1  0.18520000  0.59200000  0.36363000  1
  C  C236  1  0.23210000  0.60899000  0.34067000  1
  C  C237  1  0.29330000  0.60200000  0.35091000  1
  C  C238  1  0.30755000  0.57810000  0.38410000  1
  C  C239  1  0.26060000  0.56110000  0.40708000  1
  C  C240  1  0.34400000  0.61850000  0.32930000  1
  C  C241  1  0.38780000  0.63130000  0.31180000  1
  C  C242  1  0.44500000  0.64560000  0.29330000  1
  C  C243  1  0.44400000  0.67540000  0.26330000  1
  C  C244  1  0.64980000  0.05002000  0.92180000  1
  C  C245  1  0.69940000  0.06806000  0.89684000  1
  C  C246  1  0.68520000  0.09200000  0.86363000  1
  C  C247  1  0.73210000  0.10899000  0.84067000  1
  C  C248  1  0.79330000  0.10200000  0.85091000  1
  C  C249  1  0.80755000  0.07810000  0.88410000  1
  C  C250  1  0.76060000  0.06110000  0.90708000  1
  C  C251  1  0.84400000  0.11850000  0.82930000  1
  C  C252  1  0.88780000  0.13130000  0.81180000  1
  C  C253  1  0.94500000  0.14560000  0.79330000  1
  C  C254  1  0.94400000  0.17540000  0.76330000  1
  C  C255  1  0.85020000  0.42180000  0.44998000  1
  C  C256  1  0.80060000  0.39684000  0.43194000  1
  C  C257  1  0.81480000  0.36363000  0.40800000  1
  C  C258  1  0.76790000  0.34067000  0.39101000  1
  C  C259  1  0.70670000  0.35091000  0.39800000  1
  C  C260  1  0.69245000  0.38410000  0.42190000  1
  C  C261  1  0.73940000  0.40708000  0.43890000  1
  C  C262  1  0.65600000  0.32930000  0.38150000  1
  C  C263  1  0.61220000  0.31180000  0.36870000  1
  C  C264  1  0.55500000  0.29330000  0.35440000  1
  C  C265  1  0.55600000  0.26330000  0.32460000  1
  C  C266  1  0.35020000  0.92180000  0.94998000  1
  C  C267  1  0.30060000  0.89684000  0.93194000  1
  C  C268  1  0.31480000  0.86363000  0.90800000  1
  C  C269  1  0.26790000  0.84067000  0.89101000  1
  C  C270  1  0.20670000  0.85091000  0.89800000  1
  C  C271  1  0.19245000  0.88410000  0.92190000  1
  C  C272  1  0.23940000  0.90708000  0.93890000  1
  C  C273  1  0.15600000  0.82930000  0.88150000  1
  C  C274  1  0.11220000  0.81180000  0.86870000  1
  C  C275  1  0.05500000  0.79330000  0.85440000  1
  C  C276  1  0.05600000  0.76330000  0.82460000  1
  C  C277  1  0.98060000  0.66330000  0.72280000  1
  C  C278  1  0.02320000  0.65910000  0.69170000  1
  C  C279  1  0.01480000  0.62950000  0.66240000  1
  C  C280  1  0.96380000  0.60410000  0.66420000  1
  C  C281  1  0.92130000  0.60830000  0.69530000  1
  C  C282  1  0.92970000  0.63790000  0.72460000  1
  C  C283  1  0.95610000  0.57500000  0.63270000  1
  C  C284  1  0.85020000  0.57820000  0.55002000  1
  C  C285  1  0.80060000  0.60316000  0.56806000  1
  C  C286  1  0.81480000  0.63637000  0.59200000  1
  C  C287  1  0.76790000  0.65933000  0.60899000  1
  C  C288  1  0.70670000  0.64909000  0.60200000  1
  C  C289  1  0.69245000  0.61590000  0.57810000  1
  C  C290  1  0.73940000  0.59292000  0.56110000  1
  C  C291  1  0.65600000  0.67070000  0.61850000  1
  C  C292  1  0.61220000  0.68820000  0.63130000  1
  C  C293  1  0.55500000  0.70670000  0.64560000  1
  C  C294  1  0.55600000  0.73670000  0.67540000  1
  C  C295  1  0.35020000  0.07820000  0.05002000  1
  C  C296  1  0.30060000  0.10316000  0.06806000  1
  C  C297  1  0.31480000  0.13637000  0.09200000  1
  C  C298  1  0.26790000  0.15933000  0.10899000  1
  C  C299  1  0.20670000  0.14909000  0.10200000  1
  C  C300  1  0.19245000  0.11590000  0.07810000  1
  C  C301  1  0.23940000  0.09292000  0.06110000  1
  C  C302  1  0.15600000  0.17070000  0.11850000  1
  C  C303  1  0.11220000  0.18820000  0.13130000  1
  C  C304  1  0.05500000  0.20670000  0.14560000  1
  C  C305  1  0.05600000  0.23670000  0.17540000  1
  C  C306  1  0.85020000  0.55002000  0.42180000  1
  C  C307  1  0.80060000  0.56806000  0.39684000  1
  C  C308  1  0.81480000  0.59200000  0.36363000  1
  C  C309  1  0.76790000  0.60899000  0.34067000  1
  C  C310  1  0.70670000  0.60200000  0.35091000  1
  C  C311  1  0.69245000  0.57810000  0.38410000  1
  C  C312  1  0.73940000  0.56110000  0.40708000  1
  C  C313  1  0.65600000  0.61850000  0.32930000  1
  C  C314  1  0.61220000  0.63130000  0.31180000  1
  C  C315  1  0.55500000  0.64560000  0.29330000  1
  C  C316  1  0.55600000  0.67540000  0.26330000  1
  C  C317  1  0.48060000  0.77720000  0.16330000  1
  C  C318  1  0.52320000  0.80830000  0.15910000  1
  C  C319  1  0.51480000  0.83760000  0.12950000  1
  C  C320  1  0.46380000  0.83580000  0.10410000  1
  C  C321  1  0.42130000  0.80470000  0.10830000  1
  C  C322  1  0.42970000  0.77540000  0.13790000  1
  C  C323  1  0.45610000  0.86730000  0.07500000  1
  C  C324  1  0.35020000  0.05002000  0.92180000  1
  C  C325  1  0.30060000  0.06806000  0.89684000  1
  C  C326  1  0.31480000  0.09200000  0.86363000  1
  C  C327  1  0.26790000  0.10899000  0.84067000  1
  C  C328  1  0.20670000  0.10200000  0.85091000  1
  C  C329  1  0.19245000  0.07810000  0.88410000  1
  C  C330  1  0.23940000  0.06110000  0.90708000  1
  C  C331  1  0.15600000  0.11850000  0.82930000  1
  C  C332  1  0.11220000  0.13130000  0.81180000  1
  C  C333  1  0.05500000  0.14560000  0.79330000  1
  C  C334  1  0.05600000  0.17540000  0.76330000  1
  C  C335  1  0.98060000  0.27720000  0.66330000  1
  C  C336  1  0.02320000  0.30830000  0.65910000  1
  C  C337  1  0.01480000  0.33760000  0.62950000  1
  C  C338  1  0.96380000  0.33580000  0.60410000  1
  C  C339  1  0.92130000  0.30470000  0.60830000  1
  C  C340  1  0.92970000  0.27540000  0.63790000  1
  C  C341  1  0.95610000  0.36730000  0.57500000  1
  C  C342  1  0.85020000  0.44998000  0.57820000  1
  C  C343  1  0.80060000  0.43194000  0.60316000  1
  C  C344  1  0.81480000  0.40800000  0.63637000  1
  C  C345  1  0.76790000  0.39101000  0.65933000  1
  C  C346  1  0.70670000  0.39800000  0.64909000  1
  C  C347  1  0.69245000  0.42190000  0.61590000  1
  C  C348  1  0.73940000  0.43890000  0.59292000  1
  C  C349  1  0.65600000  0.38150000  0.67070000  1
  C  C350  1  0.61220000  0.36870000  0.68820000  1
  C  C351  1  0.55500000  0.35440000  0.70670000  1
  C  C352  1  0.55600000  0.32460000  0.73670000  1
  C  C353  1  0.35020000  0.94998000  0.07820000  1
  C  C354  1  0.30060000  0.93194000  0.10316000  1
  C  C355  1  0.31480000  0.90800000  0.13637000  1
  C  C356  1  0.26790000  0.89101000  0.15933000  1
  C  C357  1  0.20670000  0.89800000  0.14909000  1
  C  C358  1  0.19245000  0.92190000  0.11590000  1
  C  C359  1  0.23940000  0.93890000  0.09292000  1
  C  C360  1  0.15600000  0.88150000  0.17070000  1
  C  C361  1  0.11220000  0.86870000  0.18820000  1
  C  C362  1  0.05500000  0.85440000  0.20670000  1
  C  C363  1  0.05600000  0.82460000  0.23670000  1
  C  C364  1  0.50000000  0.69080000  0.63100000  1
  C  C365  1  0.50000000  0.75200000  0.68850000  1
  C  C366  1  0.50000000  0.78130000  0.71820000  1
  C  C367  1  0.50000000  0.80740000  0.74320000  1
  C  C368  1  0.00000000  0.19080000  0.13100000  1
  C  C369  1  1.00000000  0.25200000  0.18850000  1
  C  C370  1  0.00000000  0.28130000  0.21820000  1
  C  C371  1  0.00000000  0.30740000  0.24320000  1
  C  C372  1  0.50000000  0.30920000  0.36900000  1
  C  C373  1  0.50000000  0.24800000  0.31150000  1
  C  C374  1  0.50000000  0.21870000  0.28180000  1
  C  C375  1  0.50000000  0.19260000  0.25680000  1
  C  C376  1  0.00000000  0.80920000  0.86900000  1
  C  C377  1  0.00000000  0.74800000  0.81150000  1
  C  C378  1  1.00000000  0.71870000  0.78180000  1
  C  C379  1  0.00000000  0.69260000  0.75680000  1
  C  C380  1  0.50000000  0.36900000  0.69080000  1
  C  C381  1  0.50000000  0.31150000  0.75200000  1
  C  C382  1  0.50000000  0.28180000  0.78130000  1
  C  C383  1  0.50000000  0.25680000  0.80740000  1
  C  C384  1  0.00000000  0.86900000  0.19080000  1
  C  C385  1  0.00000000  0.81150000  0.25200000  1
  C  C386  1  0.00000000  0.78180000  0.28130000  1
  C  C387  1  0.00000000  0.75680000  0.30740000  1
  C  C388  1  0.50000000  0.63100000  0.30920000  1
  C  C389  1  0.50000000  0.68850000  0.24800000  1
  C  C390  1  0.50000000  0.71820000  0.21870000  1
  C  C391  1  0.50000000  0.74320000  0.19260000  1
  C  C392  1  0.00000000  0.13100000  0.80920000  1
  C  C393  1  0.00000000  0.18850000  0.74800000  1
  C  C394  1  0.00000000  0.21820000  0.71870000  1
  C  C395  1  0.00000000  0.24320000  0.69260000  1
  O  O396  1  0.05517000  0.48862000  0.44799000  1
  O  O397  1  0.16555000  0.54723000  0.53047000  1
  O  O398  1  0.09430000  0.58938000  0.55591000  1
  O  O399  1  0.59320000  0.94670000  0.86770000  1
  O  O400  1  0.55517000  0.98862000  0.94799000  1
  O  O401  1  0.66555000  0.04723000  0.03047000  1
  O  O402  1  0.59430000  0.08938000  0.05591000  1
  O  O403  1  0.09320000  0.44670000  0.36770000  1
  O  O404  1  0.05517000  0.51138000  0.55201000  1
  O  O405  1  0.16555000  0.45277000  0.46953000  1
  O  O406  1  0.09430000  0.41062000  0.44409000  1
  O  O407  1  0.59320000  0.05330000  0.13230000  1
  O  O408  1  0.55517000  0.01138000  0.05201000  1
  O  O409  1  0.66555000  0.95277000  0.96953000  1
  O  O410  1  0.59430000  0.91062000  0.94409000  1
  O  O411  1  0.05517000  0.55201000  0.48862000  1
  O  O412  1  0.16555000  0.46953000  0.54723000  1
  O  O413  1  0.09430000  0.44409000  0.58938000  1
  O  O414  1  0.59320000  0.13230000  0.94670000  1
  O  O415  1  0.55517000  0.05201000  0.98862000  1
  O  O416  1  0.66555000  0.96953000  0.04723000  1
  O  O417  1  0.59430000  0.94409000  0.08938000  1
  O  O418  1  0.09320000  0.63230000  0.44670000  1
  O  O419  1  0.05517000  0.44799000  0.51138000  1
  O  O420  1  0.16555000  0.53047000  0.45277000  1
  O  O421  1  0.09430000  0.55591000  0.41062000  1
  O  O422  1  0.55517000  0.94799000  0.01138000  1
  O  O423  1  0.66555000  0.03047000  0.95277000  1
  O  O424  1  0.59430000  0.05591000  0.91062000  1
  O  O425  1  0.94483000  0.51138000  0.55201000  1
  O  O426  1  0.83445000  0.45277000  0.46953000  1
  O  O427  1  0.90570000  0.41062000  0.44409000  1
  O  O428  1  0.44483000  0.01138000  0.05201000  1
  O  O429  1  0.33445000  0.95277000  0.96953000  1
  O  O430  1  0.40570000  0.91062000  0.94409000  1
  O  O431  1  0.90680000  0.55330000  0.63230000  1
  O  O432  1  0.94483000  0.48862000  0.44799000  1
  O  O433  1  0.83445000  0.54723000  0.53047000  1
  O  O434  1  0.90570000  0.58938000  0.55591000  1
  O  O435  1  0.44483000  0.98862000  0.94799000  1
  O  O436  1  0.33445000  0.04723000  0.03047000  1
  O  O437  1  0.40570000  0.08938000  0.05591000  1
  O  O438  1  0.94483000  0.44799000  0.51138000  1
  O  O439  1  0.83445000  0.53047000  0.45277000  1
  O  O440  1  0.90570000  0.55591000  0.41062000  1
  O  O441  1  0.40680000  0.86770000  0.05330000  1
  O  O442  1  0.44483000  0.94799000  0.01138000  1
  O  O443  1  0.33445000  0.03047000  0.95277000  1
  O  O444  1  0.40570000  0.05591000  0.91062000  1
  O  O445  1  0.90680000  0.36770000  0.55330000  1
  O  O446  1  0.94483000  0.55201000  0.48862000  1
  O  O447  1  0.83445000  0.46953000  0.54723000  1
  O  O448  1  0.90570000  0.44409000  0.58938000  1
  O  O449  1  0.44483000  0.05201000  0.98862000  1
  O  O450  1  0.33445000  0.96953000  0.04723000  1
  O  O451  1  0.40570000  0.94409000  0.08938000  1
  O  O452  1  0.50000000  0.92420000  0.89608000  1
  O  O453  1  0.00000000  0.42420000  0.39608000  1
  O  O454  1  0.50000000  0.07580000  0.10392000  1
  O  O455  1  0.00000000  0.57580000  0.60392000  1
  O  O456  1  0.50000000  0.10392000  0.92420000  1
  O  O457  1  0.00000000  0.60392000  0.42420000  1
  O  O458  1  0.50000000  0.89608000  0.07580000  1
  O  O459  1  0.00000000  0.39608000  0.57580000  1
