# generated using pymatgen
data_Zr3H13C30(S3O8)2
_symmetry_space_group_name_H-M   'P 1'
_cell_length_a   25.22400000
_cell_length_b   25.22400000
_cell_length_c   25.22400000
_cell_angle_alpha   90.00000000
_cell_angle_beta   90.00000000
_cell_angle_gamma   90.00000000
_symmetry_Int_Tables_number   1
_chemical_formula_structural   Zr3H13C30(S3O8)2
_chemical_formula_sum   'Zr24 H104 C240 S48 O128'
_cell_volume   16048.77443942
_cell_formula_units_Z   8
loop_
 _symmetry_equiv_pos_site_id
 _symmetry_equiv_pos_as_xyz
  1  'x, y, z'
loop_
 _atom_site_type_symbol
 _atom_site_label
 _atom_site_symmetry_multiplicity
 _atom_site_fract_x
 _atom_site_fract_y
 _atom_site_fract_z
 _atom_site_occupancy
  Zr  Zr0  1  0.51135000  0.48752000  0.40342000  1
  Zr  Zr1  1  0.98865000  0.01248000  0.40342000  1
  Zr  Zr2  1  0.98865000  0.48752000  0.09658000  1
  Zr  Zr3  1  0.51135000  0.01248000  0.09658000  1
  Zr  Zr4  1  0.40342000  0.51135000  0.48752000  1
  Zr  Zr5  1  0.40342000  0.98865000  0.01248000  1
  Zr  Zr6  1  0.09658000  0.98865000  0.48752000  1
  Zr  Zr7  1  0.09658000  0.51135000  0.01248000  1
  Zr  Zr8  1  0.48752000  0.40342000  0.51135000  1
  Zr  Zr9  1  0.01248000  0.40342000  0.98865000  1
  Zr  Zr10  1  0.48752000  0.09658000  0.98865000  1
  Zr  Zr11  1  0.01248000  0.09658000  0.51135000  1
  Zr  Zr12  1  0.48865000  0.51248000  0.59658000  1
  Zr  Zr13  1  0.01135000  0.98752000  0.59658000  1
  Zr  Zr14  1  0.01135000  0.51248000  0.90342000  1
  Zr  Zr15  1  0.48865000  0.98752000  0.90342000  1
  Zr  Zr16  1  0.59658000  0.48865000  0.51248000  1
  Zr  Zr17  1  0.59658000  0.01135000  0.98752000  1
  Zr  Zr18  1  0.90342000  0.01135000  0.51248000  1
  Zr  Zr19  1  0.90342000  0.48865000  0.98752000  1
  Zr  Zr20  1  0.51248000  0.59658000  0.48865000  1
  Zr  Zr21  1  0.98752000  0.59658000  0.01135000  1
  Zr  Zr22  1  0.51248000  0.90342000  0.01135000  1
  Zr  Zr23  1  0.98752000  0.90342000  0.48865000  1
  H  H24  1  0.40330000  0.48820000  0.24970000  1
  H  H25  1  0.32410000  0.48630000  0.19360000  1
  H  H26  1  0.74870000  0.46250000  0.40400000  1
  H  H27  1  0.80530000  0.46030000  0.32510000  1
  H  H28  1  0.09670000  0.01180000  0.24970000  1
  H  H29  1  0.17590000  0.01370000  0.19360000  1
  H  H30  1  0.75130000  0.03750000  0.40400000  1
  H  H31  1  0.69470000  0.03970000  0.32510000  1
  H  H32  1  0.09670000  0.48820000  0.25030000  1
  H  H33  1  0.17590000  0.48630000  0.30640000  1
  H  H34  1  0.75130000  0.46250000  0.09600000  1
  H  H35  1  0.69470000  0.46030000  0.17490000  1
  H  H36  1  0.40330000  0.01180000  0.25030000  1
  H  H37  1  0.32410000  0.01370000  0.30640000  1
  H  H38  1  0.74870000  0.03750000  0.09600000  1
  H  H39  1  0.80530000  0.03970000  0.17490000  1
  H  H40  1  0.24970000  0.40330000  0.48820000  1
  H  H41  1  0.19360000  0.32410000  0.48630000  1
  H  H42  1  0.40400000  0.74870000  0.46250000  1
  H  H43  1  0.32510000  0.80530000  0.46030000  1
  H  H44  1  0.24970000  0.09670000  0.01180000  1
  H  H45  1  0.19360000  0.17590000  0.01370000  1
  H  H46  1  0.40400000  0.75130000  0.03750000  1
  H  H47  1  0.32510000  0.69470000  0.03970000  1
  H  H48  1  0.25030000  0.09670000  0.48820000  1
  H  H49  1  0.30640000  0.17590000  0.48630000  1
  H  H50  1  0.09600000  0.75130000  0.46250000  1
  H  H51  1  0.17490000  0.69470000  0.46030000  1
  H  H52  1  0.25030000  0.40330000  0.01180000  1
  H  H53  1  0.30640000  0.32410000  0.01370000  1
  H  H54  1  0.09600000  0.74870000  0.03750000  1
  H  H55  1  0.17490000  0.80530000  0.03970000  1
  H  H56  1  0.48820000  0.24970000  0.40330000  1
  H  H57  1  0.48630000  0.19360000  0.32410000  1
  H  H58  1  0.46250000  0.40400000  0.74870000  1
  H  H59  1  0.46030000  0.32510000  0.80530000  1
  H  H60  1  0.01180000  0.24970000  0.09670000  1
  H  H61  1  0.01370000  0.19360000  0.17590000  1
  H  H62  1  0.03750000  0.40400000  0.75130000  1
  H  H63  1  0.03970000  0.32510000  0.69470000  1
  H  H64  1  0.48820000  0.25030000  0.09670000  1
  H  H65  1  0.48630000  0.30640000  0.17590000  1
  H  H66  1  0.46250000  0.09600000  0.75130000  1
  H  H67  1  0.46030000  0.17490000  0.69470000  1
  H  H68  1  0.01180000  0.25030000  0.40330000  1
  H  H69  1  0.01370000  0.30640000  0.32410000  1
  H  H70  1  0.03750000  0.09600000  0.74870000  1
  H  H71  1  0.03970000  0.17490000  0.80530000  1
  H  H72  1  0.59670000  0.51180000  0.75030000  1
  H  H73  1  0.67590000  0.51370000  0.80640000  1
  H  H74  1  0.25130000  0.53750000  0.59600000  1
  H  H75  1  0.19470000  0.53970000  0.67490000  1
  H  H76  1  0.90330000  0.98820000  0.75030000  1
  H  H77  1  0.82410000  0.98630000  0.80640000  1
  H  H78  1  0.24870000  0.96250000  0.59600000  1
  H  H79  1  0.30530000  0.96030000  0.67490000  1
  H  H80  1  0.90330000  0.51180000  0.74970000  1
  H  H81  1  0.82410000  0.51370000  0.69360000  1
  H  H82  1  0.24870000  0.53750000  0.90400000  1
  H  H83  1  0.30530000  0.53970000  0.82510000  1
  H  H84  1  0.59670000  0.98820000  0.74970000  1
  H  H85  1  0.67590000  0.98630000  0.69360000  1
  H  H86  1  0.25130000  0.96250000  0.90400000  1
  H  H87  1  0.19470000  0.96030000  0.82510000  1
  H  H88  1  0.75030000  0.59670000  0.51180000  1
  H  H89  1  0.80640000  0.67590000  0.51370000  1
  H  H90  1  0.59600000  0.25130000  0.53750000  1
  H  H91  1  0.67490000  0.19470000  0.53970000  1
  H  H92  1  0.75030000  0.90330000  0.98820000  1
  H  H93  1  0.80640000  0.82410000  0.98630000  1
  H  H94  1  0.59600000  0.24870000  0.96250000  1
  H  H95  1  0.67490000  0.30530000  0.96030000  1
  H  H96  1  0.74970000  0.90330000  0.51180000  1
  H  H97  1  0.69360000  0.82410000  0.51370000  1
  H  H98  1  0.90400000  0.24870000  0.53750000  1
  H  H99  1  0.82510000  0.30530000  0.53970000  1
  H  H100  1  0.74970000  0.59670000  0.98820000  1
  H  H101  1  0.69360000  0.67590000  0.98630000  1
  H  H102  1  0.90400000  0.25130000  0.96250000  1
  H  H103  1  0.82510000  0.19470000  0.96030000  1
  H  H104  1  0.51180000  0.75030000  0.59670000  1
  H  H105  1  0.51370000  0.80640000  0.67590000  1
  H  H106  1  0.53750000  0.59600000  0.25130000  1
  H  H107  1  0.53970000  0.67490000  0.19470000  1
  H  H108  1  0.98820000  0.75030000  0.90330000  1
  H  H109  1  0.98630000  0.80640000  0.82410000  1
  H  H110  1  0.96250000  0.59600000  0.24870000  1
  H  H111  1  0.96030000  0.67490000  0.30530000  1
  H  H112  1  0.51180000  0.74970000  0.90330000  1
  H  H113  1  0.51370000  0.69360000  0.82410000  1
  H  H114  1  0.53750000  0.90400000  0.24870000  1
  H  H115  1  0.53970000  0.82510000  0.30530000  1
  H  H116  1  0.98820000  0.74970000  0.59670000  1
  H  H117  1  0.98630000  0.69360000  0.67590000  1
  H  H118  1  0.96250000  0.90400000  0.25130000  1
  H  H119  1  0.96030000  0.82510000  0.19470000  1
  H  H120  1  0.43310000  0.43310000  0.43310000  1
  H  H121  1  0.06690000  0.06690000  0.43310000  1
  H  H122  1  0.06690000  0.43310000  0.06690000  1
  H  H123  1  0.43310000  0.06690000  0.06690000  1
  H  H124  1  0.56690000  0.56690000  0.56690000  1
  H  H125  1  0.93310000  0.93310000  0.56690000  1
  H  H126  1  0.93310000  0.56690000  0.93310000  1
  H  H127  1  0.56690000  0.93310000  0.93310000  1
  C  C128  1  0.39270000  0.49770000  0.36090000  1
  C  C129  1  0.35670000  0.49590000  0.31550000  1
  C  C130  1  0.36830000  0.49080000  0.26310000  1
  C  C131  1  0.32300000  0.48990000  0.23110000  1
  C  C132  1  0.27720000  0.49460000  0.25940000  1
  C  C133  1  0.63730000  0.47200000  0.39240000  1
  C  C134  1  0.68320000  0.46720000  0.35640000  1
  C  C135  1  0.73550000  0.46370000  0.36870000  1
  C  C136  1  0.76770000  0.46190000  0.32350000  1
  C  C137  1  0.74000000  0.46270000  0.27720000  1
  C  C138  1  0.10730000  0.00230000  0.36090000  1
  C  C139  1  0.14330000  0.00410000  0.31550000  1
  C  C140  1  0.13170000  0.00920000  0.26310000  1
  C  C141  1  0.17700000  0.01010000  0.23110000  1
  C  C142  1  0.22280000  0.00540000  0.25940000  1
  C  C143  1  0.86270000  0.02800000  0.39240000  1
  C  C144  1  0.81680000  0.03280000  0.35640000  1
  C  C145  1  0.76450000  0.03630000  0.36870000  1
  C  C146  1  0.73230000  0.03810000  0.32350000  1
  C  C147  1  0.76000000  0.03730000  0.27720000  1
  C  C148  1  0.10730000  0.49770000  0.13910000  1
  C  C149  1  0.14330000  0.49590000  0.18450000  1
  C  C150  1  0.13170000  0.49080000  0.23690000  1
  C  C151  1  0.17700000  0.48990000  0.26890000  1
  C  C152  1  0.22280000  0.49460000  0.24060000  1
  C  C153  1  0.86270000  0.47200000  0.10760000  1
  C  C154  1  0.81680000  0.46720000  0.14360000  1
  C  C155  1  0.76450000  0.46370000  0.13130000  1
  C  C156  1  0.73230000  0.46190000  0.17650000  1
  C  C157  1  0.76000000  0.46270000  0.22280000  1
  C  C158  1  0.39270000  0.00230000  0.13910000  1
  C  C159  1  0.35670000  0.00410000  0.18450000  1
  C  C160  1  0.36830000  0.00920000  0.23690000  1
  C  C161  1  0.32300000  0.01010000  0.26890000  1
  C  C162  1  0.27720000  0.00540000  0.24060000  1
  C  C163  1  0.63730000  0.02800000  0.10760000  1
  C  C164  1  0.68320000  0.03280000  0.14360000  1
  C  C165  1  0.73550000  0.03630000  0.13130000  1
  C  C166  1  0.76770000  0.03810000  0.17650000  1
  C  C167  1  0.74000000  0.03730000  0.22280000  1
  C  C168  1  0.36090000  0.39270000  0.49770000  1
  C  C169  1  0.31550000  0.35670000  0.49590000  1
  C  C170  1  0.26310000  0.36830000  0.49080000  1
  C  C171  1  0.23110000  0.32300000  0.48990000  1
  C  C172  1  0.25940000  0.27720000  0.49460000  1
  C  C173  1  0.39240000  0.63730000  0.47200000  1
  C  C174  1  0.35640000  0.68320000  0.46720000  1
  C  C175  1  0.36870000  0.73550000  0.46370000  1
  C  C176  1  0.32350000  0.76770000  0.46190000  1
  C  C177  1  0.27720000  0.74000000  0.46270000  1
  C  C178  1  0.36090000  0.10730000  0.00230000  1
  C  C179  1  0.31550000  0.14330000  0.00410000  1
  C  C180  1  0.26310000  0.13170000  0.00920000  1
  C  C181  1  0.23110000  0.17700000  0.01010000  1
  C  C182  1  0.25940000  0.22280000  0.00540000  1
  C  C183  1  0.39240000  0.86270000  0.02800000  1
  C  C184  1  0.35640000  0.81680000  0.03280000  1
  C  C185  1  0.36870000  0.76450000  0.03630000  1
  C  C186  1  0.32350000  0.73230000  0.03810000  1
  C  C187  1  0.27720000  0.76000000  0.03730000  1
  C  C188  1  0.13910000  0.10730000  0.49770000  1
  C  C189  1  0.18450000  0.14330000  0.49590000  1
  C  C190  1  0.23690000  0.13170000  0.49080000  1
  C  C191  1  0.26890000  0.17700000  0.48990000  1
  C  C192  1  0.24060000  0.22280000  0.49460000  1
  C  C193  1  0.10760000  0.86270000  0.47200000  1
  C  C194  1  0.14360000  0.81680000  0.46720000  1
  C  C195  1  0.13130000  0.76450000  0.46370000  1
  C  C196  1  0.17650000  0.73230000  0.46190000  1
  C  C197  1  0.22280000  0.76000000  0.46270000  1
  C  C198  1  0.13910000  0.39270000  0.00230000  1
  C  C199  1  0.18450000  0.35670000  0.00410000  1
  C  C200  1  0.23690000  0.36830000  0.00920000  1
  C  C201  1  0.26890000  0.32300000  0.01010000  1
  C  C202  1  0.24060000  0.27720000  0.00540000  1
  C  C203  1  0.10760000  0.63730000  0.02800000  1
  C  C204  1  0.14360000  0.68320000  0.03280000  1
  C  C205  1  0.13130000  0.73550000  0.03630000  1
  C  C206  1  0.17650000  0.76770000  0.03810000  1
  C  C207  1  0.22280000  0.74000000  0.03730000  1
  C  C208  1  0.49770000  0.36090000  0.39270000  1
  C  C209  1  0.49590000  0.31550000  0.35670000  1
  C  C210  1  0.49080000  0.26310000  0.36830000  1
  C  C211  1  0.48990000  0.23110000  0.32300000  1
  C  C212  1  0.49460000  0.25940000  0.27720000  1
  C  C213  1  0.47200000  0.39240000  0.63730000  1
  C  C214  1  0.46720000  0.35640000  0.68320000  1
  C  C215  1  0.46370000  0.36870000  0.73550000  1
  C  C216  1  0.46190000  0.32350000  0.76770000  1
  C  C217  1  0.46270000  0.27720000  0.74000000  1
  C  C218  1  0.00230000  0.36090000  0.10730000  1
  C  C219  1  0.00410000  0.31550000  0.14330000  1
  C  C220  1  0.00920000  0.26310000  0.13170000  1
  C  C221  1  0.01010000  0.23110000  0.17700000  1
  C  C222  1  0.00540000  0.25940000  0.22280000  1
  C  C223  1  0.02800000  0.39240000  0.86270000  1
  C  C224  1  0.03280000  0.35640000  0.81680000  1
  C  C225  1  0.03630000  0.36870000  0.76450000  1
  C  C226  1  0.03810000  0.32350000  0.73230000  1
  C  C227  1  0.03730000  0.27720000  0.76000000  1
  C  C228  1  0.49770000  0.13910000  0.10730000  1
  C  C229  1  0.49590000  0.18450000  0.14330000  1
  C  C230  1  0.49080000  0.23690000  0.13170000  1
  C  C231  1  0.48990000  0.26890000  0.17700000  1
  C  C232  1  0.49460000  0.24060000  0.22280000  1
  C  C233  1  0.47200000  0.10760000  0.86270000  1
  C  C234  1  0.46720000  0.14360000  0.81680000  1
  C  C235  1  0.46370000  0.13130000  0.76450000  1
  C  C236  1  0.46190000  0.17650000  0.73230000  1
  C  C237  1  0.46270000  0.22280000  0.76000000  1
  C  C238  1  0.00230000  0.13910000  0.39270000  1
  C  C239  1  0.00410000  0.18450000  0.35670000  1
  C  C240  1  0.00920000  0.23690000  0.36830000  1
  C  C241  1  0.01010000  0.26890000  0.32300000  1
  C  C242  1  0.00540000  0.24060000  0.27720000  1
  C  C243  1  0.02800000  0.10760000  0.63730000  1
  C  C244  1  0.03280000  0.14360000  0.68320000  1
  C  C245  1  0.03630000  0.13130000  0.73550000  1
  C  C246  1  0.03810000  0.17650000  0.76770000  1
  C  C247  1  0.03730000  0.22280000  0.74000000  1
  C  C248  1  0.60730000  0.50230000  0.63910000  1
  C  C249  1  0.64330000  0.50410000  0.68450000  1
  C  C250  1  0.63170000  0.50920000  0.73690000  1
  C  C251  1  0.67700000  0.51010000  0.76890000  1
  C  C252  1  0.72280000  0.50540000  0.74060000  1
  C  C253  1  0.36270000  0.52800000  0.60760000  1
  C  C254  1  0.31680000  0.53280000  0.64360000  1
  C  C255  1  0.26450000  0.53630000  0.63130000  1
  C  C256  1  0.23230000  0.53810000  0.67650000  1
  C  C257  1  0.26000000  0.53730000  0.72280000  1
  C  C258  1  0.89270000  0.99770000  0.63910000  1
  C  C259  1  0.85670000  0.99590000  0.68450000  1
  C  C260  1  0.86830000  0.99080000  0.73690000  1
  C  C261  1  0.82300000  0.98990000  0.76890000  1
  C  C262  1  0.77720000  0.99460000  0.74060000  1
  C  C263  1  0.13730000  0.97200000  0.60760000  1
  C  C264  1  0.18320000  0.96720000  0.64360000  1
  C  C265  1  0.23550000  0.96370000  0.63130000  1
  C  C266  1  0.26770000  0.96190000  0.67650000  1
  C  C267  1  0.24000000  0.96270000  0.72280000  1
  C  C268  1  0.89270000  0.50230000  0.86090000  1
  C  C269  1  0.85670000  0.50410000  0.81550000  1
  C  C270  1  0.86830000  0.50920000  0.76310000  1
  C  C271  1  0.82300000  0.51010000  0.73110000  1
  C  C272  1  0.77720000  0.50540000  0.75940000  1
  C  C273  1  0.13730000  0.52800000  0.89240000  1
  C  C274  1  0.18320000  0.53280000  0.85640000  1
  C  C275  1  0.23550000  0.53630000  0.86870000  1
  C  C276  1  0.26770000  0.53810000  0.82350000  1
  C  C277  1  0.24000000  0.53730000  0.77720000  1
  C  C278  1  0.60730000  0.99770000  0.86090000  1
  C  C279  1  0.64330000  0.99590000  0.81550000  1
  C  C280  1  0.63170000  0.99080000  0.76310000  1
  C  C281  1  0.67700000  0.98990000  0.73110000  1
  C  C282  1  0.72280000  0.99460000  0.75940000  1
  C  C283  1  0.36270000  0.97200000  0.89240000  1
  C  C284  1  0.31680000  0.96720000  0.85640000  1
  C  C285  1  0.26450000  0.96370000  0.86870000  1
  C  C286  1  0.23230000  0.96190000  0.82350000  1
  C  C287  1  0.26000000  0.96270000  0.77720000  1
  C  C288  1  0.63910000  0.60730000  0.50230000  1
  C  C289  1  0.68450000  0.64330000  0.50410000  1
  C  C290  1  0.73690000  0.63170000  0.50920000  1
  C  C291  1  0.76890000  0.67700000  0.51010000  1
  C  C292  1  0.74060000  0.72280000  0.50540000  1
  C  C293  1  0.60760000  0.36270000  0.52800000  1
  C  C294  1  0.64360000  0.31680000  0.53280000  1
  C  C295  1  0.63130000  0.26450000  0.53630000  1
  C  C296  1  0.67650000  0.23230000  0.53810000  1
  C  C297  1  0.72280000  0.26000000  0.53730000  1
  C  C298  1  0.63910000  0.89270000  0.99770000  1
  C  C299  1  0.68450000  0.85670000  0.99590000  1
  C  C300  1  0.73690000  0.86830000  0.99080000  1
  C  C301  1  0.76890000  0.82300000  0.98990000  1
  C  C302  1  0.74060000  0.77720000  0.99460000  1
  C  C303  1  0.60760000  0.13730000  0.97200000  1
  C  C304  1  0.64360000  0.18320000  0.96720000  1
  C  C305  1  0.63130000  0.23550000  0.96370000  1
  C  C306  1  0.67650000  0.26770000  0.96190000  1
  C  C307  1  0.72280000  0.24000000  0.96270000  1
  C  C308  1  0.86090000  0.89270000  0.50230000  1
  C  C309  1  0.81550000  0.85670000  0.50410000  1
  C  C310  1  0.76310000  0.86830000  0.50920000  1
  C  C311  1  0.73110000  0.82300000  0.51010000  1
  C  C312  1  0.75940000  0.77720000  0.50540000  1
  C  C313  1  0.89240000  0.13730000  0.52800000  1
  C  C314  1  0.85640000  0.18320000  0.53280000  1
  C  C315  1  0.86870000  0.23550000  0.53630000  1
  C  C316  1  0.82350000  0.26770000  0.53810000  1
  C  C317  1  0.77720000  0.24000000  0.53730000  1
  C  C318  1  0.86090000  0.60730000  0.99770000  1
  C  C319  1  0.81550000  0.64330000  0.99590000  1
  C  C320  1  0.76310000  0.63170000  0.99080000  1
  C  C321  1  0.73110000  0.67700000  0.98990000  1
  C  C322  1  0.75940000  0.72280000  0.99460000  1
  C  C323  1  0.89240000  0.36270000  0.97200000  1
  C  C324  1  0.85640000  0.31680000  0.96720000  1
  C  C325  1  0.86870000  0.26450000  0.96370000  1
  C  C326  1  0.82350000  0.23230000  0.96190000  1
  C  C327  1  0.77720000  0.26000000  0.96270000  1
  C  C328  1  0.50230000  0.63910000  0.60730000  1
  C  C329  1  0.50410000  0.68450000  0.64330000  1
  C  C330  1  0.50920000  0.73690000  0.63170000  1
  C  C331  1  0.51010000  0.76890000  0.67700000  1
  C  C332  1  0.50540000  0.74060000  0.72280000  1
  C  C333  1  0.52800000  0.60760000  0.36270000  1
  C  C334  1  0.53280000  0.64360000  0.31680000  1
  C  C335  1  0.53630000  0.63130000  0.26450000  1
  C  C336  1  0.53810000  0.67650000  0.23230000  1
  C  C337  1  0.53730000  0.72280000  0.26000000  1
  C  C338  1  0.99770000  0.63910000  0.89270000  1
  C  C339  1  0.99590000  0.68450000  0.85670000  1
  C  C340  1  0.99080000  0.73690000  0.86830000  1
  C  C341  1  0.98990000  0.76890000  0.82300000  1
  C  C342  1  0.99460000  0.74060000  0.77720000  1
  C  C343  1  0.97200000  0.60760000  0.13730000  1
  C  C344  1  0.96720000  0.64360000  0.18320000  1
  C  C345  1  0.96370000  0.63130000  0.23550000  1
  C  C346  1  0.96190000  0.67650000  0.26770000  1
  C  C347  1  0.96270000  0.72280000  0.24000000  1
  C  C348  1  0.50230000  0.86090000  0.89270000  1
  C  C349  1  0.50410000  0.81550000  0.85670000  1
  C  C350  1  0.50920000  0.76310000  0.86830000  1
  C  C351  1  0.51010000  0.73110000  0.82300000  1
  C  C352  1  0.50540000  0.75940000  0.77720000  1
  C  C353  1  0.52800000  0.89240000  0.13730000  1
  C  C354  1  0.53280000  0.85640000  0.18320000  1
  C  C355  1  0.53630000  0.86870000  0.23550000  1
  C  C356  1  0.53810000  0.82350000  0.26770000  1
  C  C357  1  0.53730000  0.77720000  0.24000000  1
  C  C358  1  0.99770000  0.86090000  0.60730000  1
  C  C359  1  0.99590000  0.81550000  0.64330000  1
  C  C360  1  0.99080000  0.76310000  0.63170000  1
  C  C361  1  0.98990000  0.73110000  0.67700000  1
  C  C362  1  0.99460000  0.75940000  0.72280000  1
  C  C363  1  0.97200000  0.89240000  0.36270000  1
  C  C364  1  0.96720000  0.85640000  0.31680000  1
  C  C365  1  0.96370000  0.86870000  0.26450000  1
  C  C366  1  0.96190000  0.82350000  0.23230000  1
  C  C367  1  0.96270000  0.77720000  0.26000000  1
  S  S368  1  0.28968000  0.50090000  0.32591000  1
  S  S369  1  0.67345000  0.46848000  0.28918000  1
  S  S370  1  0.21032000  0.99910000  0.32591000  1
  S  S371  1  0.82655000  0.03152000  0.28918000  1
  S  S372  1  0.21032000  0.50090000  0.17409000  1
  S  S373  1  0.82655000  0.46848000  0.21082000  1
  S  S374  1  0.28968000  0.99910000  0.17409000  1
  S  S375  1  0.67345000  0.03152000  0.21082000  1
  S  S376  1  0.32591000  0.28968000  0.50090000  1
  S  S377  1  0.28918000  0.67345000  0.46848000  1
  S  S378  1  0.32591000  0.21032000  0.99910000  1
  S  S379  1  0.28918000  0.82655000  0.03152000  1
  S  S380  1  0.17409000  0.21032000  0.50090000  1
  S  S381  1  0.21082000  0.82655000  0.46848000  1
  S  S382  1  0.17409000  0.28968000  0.99910000  1
  S  S383  1  0.21082000  0.67345000  0.03152000  1
  S  S384  1  0.50090000  0.32591000  0.28968000  1
  S  S385  1  0.46848000  0.28918000  0.67345000  1
  S  S386  1  0.99910000  0.32591000  0.21032000  1
  S  S387  1  0.03152000  0.28918000  0.82655000  1
  S  S388  1  0.50090000  0.17409000  0.21032000  1
  S  S389  1  0.46848000  0.21082000  0.82655000  1
  S  S390  1  0.99910000  0.17409000  0.28968000  1
  S  S391  1  0.03152000  0.21082000  0.67345000  1
  S  S392  1  0.71032000  0.49910000  0.67409000  1
  S  S393  1  0.32655000  0.53152000  0.71082000  1
  S  S394  1  0.78968000  0.00090000  0.67409000  1
  S  S395  1  0.17345000  0.96848000  0.71082000  1
  S  S396  1  0.78968000  0.49910000  0.82591000  1
  S  S397  1  0.17345000  0.53152000  0.78918000  1
  S  S398  1  0.71032000  0.00090000  0.82591000  1
  S  S399  1  0.32655000  0.96848000  0.78918000  1
  S  S400  1  0.67409000  0.71032000  0.49910000  1
  S  S401  1  0.71082000  0.32655000  0.53152000  1
  S  S402  1  0.67409000  0.78968000  0.00090000  1
  S  S403  1  0.71082000  0.17345000  0.96848000  1
  S  S404  1  0.82591000  0.78968000  0.49910000  1
  S  S405  1  0.78918000  0.17345000  0.53152000  1
  S  S406  1  0.82591000  0.71032000  0.00090000  1
  S  S407  1  0.78918000  0.32655000  0.96848000  1
  S  S408  1  0.49910000  0.67409000  0.71032000  1
  S  S409  1  0.53152000  0.71082000  0.32655000  1
  S  S410  1  0.00090000  0.67409000  0.78968000  1
  S  S411  1  0.96848000  0.71082000  0.17345000  1
  S  S412  1  0.49910000  0.82591000  0.78968000  1
  S  S413  1  0.53152000  0.78918000  0.17345000  1
  S  S414  1  0.00090000  0.82591000  0.71032000  1
  S  S415  1  0.96848000  0.78918000  0.32655000  1
  O  O416  1  0.54755000  0.44015000  0.46388000  1
  O  O417  1  0.44160000  0.49062000  0.35078000  1
  O  O418  1  0.37097000  0.50619000  0.40601000  1
  O  O419  1  0.59131000  0.47361000  0.36988000  1
  O  O420  1  0.64897000  0.47431000  0.44263000  1
  O  O421  1  0.95245000  0.05985000  0.46388000  1
  O  O422  1  0.05840000  0.00938000  0.35078000  1
  O  O423  1  0.12903000  0.99381000  0.40601000  1
  O  O424  1  0.90869000  0.02639000  0.36988000  1
  O  O425  1  0.85103000  0.02569000  0.44263000  1
  O  O426  1  0.95245000  0.44015000  0.03612000  1
  O  O427  1  0.05840000  0.49062000  0.14922000  1
  O  O428  1  0.12903000  0.50619000  0.09399000  1
  O  O429  1  0.90869000  0.47361000  0.13012000  1
  O  O430  1  0.85103000  0.47431000  0.05737000  1
  O  O431  1  0.54755000  0.05985000  0.03612000  1
  O  O432  1  0.44160000  0.00938000  0.14922000  1
  O  O433  1  0.37097000  0.99381000  0.09399000  1
  O  O434  1  0.59131000  0.02639000  0.13012000  1
  O  O435  1  0.64897000  0.02569000  0.05737000  1
  O  O436  1  0.46388000  0.54755000  0.44015000  1
  O  O437  1  0.35078000  0.44160000  0.49062000  1
  O  O438  1  0.40601000  0.37097000  0.50619000  1
  O  O439  1  0.36988000  0.59131000  0.47361000  1
  O  O440  1  0.44263000  0.64897000  0.47431000  1
  O  O441  1  0.46388000  0.95245000  0.05985000  1
  O  O442  1  0.35078000  0.05840000  0.00938000  1
  O  O443  1  0.40601000  0.12903000  0.99381000  1
  O  O444  1  0.36988000  0.90869000  0.02639000  1
  O  O445  1  0.44263000  0.85103000  0.02569000  1
  O  O446  1  0.03612000  0.95245000  0.44015000  1
  O  O447  1  0.14922000  0.05840000  0.49062000  1
  O  O448  1  0.09399000  0.12903000  0.50619000  1
  O  O449  1  0.13012000  0.90869000  0.47361000  1
  O  O450  1  0.05737000  0.85103000  0.47431000  1
  O  O451  1  0.03612000  0.54755000  0.05985000  1
  O  O452  1  0.14922000  0.44160000  0.00938000  1
  O  O453  1  0.09399000  0.37097000  0.99381000  1
  O  O454  1  0.13012000  0.59131000  0.02639000  1
  O  O455  1  0.05737000  0.64897000  0.02569000  1
  O  O456  1  0.44015000  0.46388000  0.54755000  1
  O  O457  1  0.49062000  0.35078000  0.44160000  1
  O  O458  1  0.50619000  0.40601000  0.37097000  1
  O  O459  1  0.47361000  0.36988000  0.59131000  1
  O  O460  1  0.47431000  0.44263000  0.64897000  1
  O  O461  1  0.05985000  0.46388000  0.95245000  1
  O  O462  1  0.00938000  0.35078000  0.05840000  1
  O  O463  1  0.99381000  0.40601000  0.12903000  1
  O  O464  1  0.02639000  0.36988000  0.90869000  1
  O  O465  1  0.02569000  0.44263000  0.85103000  1
  O  O466  1  0.44015000  0.03612000  0.95245000  1
  O  O467  1  0.49062000  0.14922000  0.05840000  1
  O  O468  1  0.50619000  0.09399000  0.12903000  1
  O  O469  1  0.47361000  0.13012000  0.90869000  1
  O  O470  1  0.47431000  0.05737000  0.85103000  1
  O  O471  1  0.05985000  0.03612000  0.54755000  1
  O  O472  1  0.00938000  0.14922000  0.44160000  1
  O  O473  1  0.99381000  0.09399000  0.37097000  1
  O  O474  1  0.02639000  0.13012000  0.59131000  1
  O  O475  1  0.02569000  0.05737000  0.64897000  1
  O  O476  1  0.45245000  0.55985000  0.53612000  1
  O  O477  1  0.55840000  0.50938000  0.64922000  1
  O  O478  1  0.62903000  0.49381000  0.59399000  1
  O  O479  1  0.40869000  0.52639000  0.63012000  1
  O  O480  1  0.35103000  0.52569000  0.55737000  1
  O  O481  1  0.04755000  0.94015000  0.53612000  1
  O  O482  1  0.94160000  0.99062000  0.64922000  1
  O  O483  1  0.87097000  0.00619000  0.59399000  1
  O  O484  1  0.09131000  0.97361000  0.63012000  1
  O  O485  1  0.14897000  0.97431000  0.55737000  1
  O  O486  1  0.04755000  0.55985000  0.96388000  1
  O  O487  1  0.94160000  0.50938000  0.85078000  1
  O  O488  1  0.87097000  0.49381000  0.90601000  1
  O  O489  1  0.09131000  0.52639000  0.86988000  1
  O  O490  1  0.14897000  0.52569000  0.94263000  1
  O  O491  1  0.45245000  0.94015000  0.96388000  1
  O  O492  1  0.55840000  0.99062000  0.85078000  1
  O  O493  1  0.62903000  0.00619000  0.90601000  1
  O  O494  1  0.40869000  0.97361000  0.86988000  1
  O  O495  1  0.35103000  0.97431000  0.94263000  1
  O  O496  1  0.53612000  0.45245000  0.55985000  1
  O  O497  1  0.64922000  0.55840000  0.50938000  1
  O  O498  1  0.59399000  0.62903000  0.49381000  1
  O  O499  1  0.63012000  0.40869000  0.52639000  1
  O  O500  1  0.55737000  0.35103000  0.52569000  1
  O  O501  1  0.53612000  0.04755000  0.94015000  1
  O  O502  1  0.64922000  0.94160000  0.99062000  1
  O  O503  1  0.59399000  0.87097000  0.00619000  1
  O  O504  1  0.63012000  0.09131000  0.97361000  1
  O  O505  1  0.55737000  0.14897000  0.97431000  1
  O  O506  1  0.96388000  0.04755000  0.55985000  1
  O  O507  1  0.85078000  0.94160000  0.50938000  1
  O  O508  1  0.90601000  0.87097000  0.49381000  1
  O  O509  1  0.86988000  0.09131000  0.52639000  1
  O  O510  1  0.94263000  0.14897000  0.52569000  1
  O  O511  1  0.96388000  0.45245000  0.94015000  1
  O  O512  1  0.85078000  0.55840000  0.99062000  1
  O  O513  1  0.90601000  0.62903000  0.00619000  1
  O  O514  1  0.86988000  0.40869000  0.97361000  1
  O  O515  1  0.94263000  0.35103000  0.97431000  1
  O  O516  1  0.55985000  0.53612000  0.45245000  1
  O  O517  1  0.50938000  0.64922000  0.55840000  1
  O  O518  1  0.49381000  0.59399000  0.62903000  1
  O  O519  1  0.52639000  0.63012000  0.40869000  1
  O  O520  1  0.52569000  0.55737000  0.35103000  1
  O  O521  1  0.94015000  0.53612000  0.04755000  1
  O  O522  1  0.99062000  0.64922000  0.94160000  1
  O  O523  1  0.00619000  0.59399000  0.87097000  1
  O  O524  1  0.97361000  0.63012000  0.09131000  1
  O  O525  1  0.97431000  0.55737000  0.14897000  1
  O  O526  1  0.55985000  0.96388000  0.04755000  1
  O  O527  1  0.50938000  0.85078000  0.94160000  1
  O  O528  1  0.49381000  0.90601000  0.87097000  1
  O  O529  1  0.52639000  0.86988000  0.09131000  1
  O  O530  1  0.52569000  0.94263000  0.14897000  1
  O  O531  1  0.94015000  0.96388000  0.45245000  1
  O  O532  1  0.99062000  0.85078000  0.55840000  1
  O  O533  1  0.00619000  0.90601000  0.62903000  1
  O  O534  1  0.97361000  0.86988000  0.40869000  1
  O  O535  1  0.97431000  0.94263000  0.35103000  1
  O  O536  1  0.45210000  0.45210000  0.45210000  1
  O  O537  1  0.04790000  0.04790000  0.45210000  1
  O  O538  1  0.04790000  0.45210000  0.04790000  1
  O  O539  1  0.45210000  0.04790000  0.04790000  1
  O  O540  1  0.54790000  0.54790000  0.54790000  1
  O  O541  1  0.95210000  0.95210000  0.54790000  1
  O  O542  1  0.95210000  0.54790000  0.95210000  1
  O  O543  1  0.54790000  0.95210000  0.95210000  1
