# generated using pymatgen
data_Zr6NiH128C240(N3O8)4
_symmetry_space_group_name_H-M   'P 1'
_cell_length_a   28.92020000
_cell_length_b   28.92020000
_cell_length_c   28.92020000
_cell_angle_alpha   90.00000000
_cell_angle_beta   90.00000000
_cell_angle_gamma   90.00000000
_symmetry_Int_Tables_number   1
_chemical_formula_structural   Zr6NiH128C240(N3O8)4
_chemical_formula_sum   'Zr6 Ni1 H128 C240 N12 O32'
_cell_volume   24188.21811131
_cell_formula_units_Z   1
loop_
 _symmetry_equiv_pos_site_id
 _symmetry_equiv_pos_as_xyz
  1  'x, y, z'
loop_
 _atom_site_type_symbol
 _atom_site_label
 _atom_site_symmetry_multiplicity
 _atom_site_fract_x
 _atom_site_fract_y
 _atom_site_fract_z
 _atom_site_occupancy
  Zr  Zr0  1  0.50000000  0.50000000  0.41424000  1
  Zr  Zr1  1  0.50000000  0.50000000  0.58576000  1
  Zr  Zr2  1  0.41424000  0.50000000  0.50000000  1
  Zr  Zr3  1  0.58576000  0.50000000  0.50000000  1
  Zr  Zr4  1  0.50000000  0.41424000  0.50000000  1
  Zr  Zr5  1  0.50000000  0.58576000  0.50000000  1
  Ni  Ni6  1  0.00000000  0.00000000  0.45310000  1
  H  H7  1  0.82750000  0.45630000  0.04290000  1
  H  H8  1  0.60140000  0.48680000  0.30090000  1
  H  H9  1  0.65740000  0.47540000  0.24480000  1
  H  H10  1  0.17250000  0.45630000  0.95710000  1
  H  H11  1  0.39860000  0.48680000  0.69910000  1
  H  H12  1  0.34260000  0.47540000  0.75520000  1
  H  H13  1  0.04290000  0.82750000  0.45630000  1
  H  H14  1  0.30090000  0.60140000  0.48680000  1
  H  H15  1  0.24480000  0.65740000  0.47540000  1
  H  H16  1  0.95710000  0.17250000  0.45630000  1
  H  H17  1  0.69910000  0.39860000  0.48680000  1
  H  H18  1  0.75520000  0.34260000  0.47540000  1
  H  H19  1  0.45630000  0.04290000  0.82750000  1
  H  H20  1  0.48680000  0.30090000  0.60140000  1
  H  H21  1  0.47540000  0.24480000  0.65740000  1
  H  H22  1  0.45630000  0.95710000  0.17250000  1
  H  H23  1  0.48680000  0.69910000  0.39860000  1
  H  H24  1  0.47540000  0.75520000  0.34260000  1
  H  H25  1  0.45630000  0.82750000  0.95710000  1
  H  H26  1  0.48680000  0.60140000  0.69910000  1
  H  H27  1  0.47540000  0.65740000  0.75520000  1
  H  H28  1  0.45630000  0.17250000  0.04290000  1
  H  H29  1  0.48680000  0.39860000  0.30090000  1
  H  H30  1  0.47540000  0.34260000  0.24480000  1
  H  H31  1  0.17250000  0.04290000  0.45630000  1
  H  H32  1  0.39860000  0.30090000  0.48680000  1
  H  H33  1  0.34260000  0.24480000  0.47540000  1
  H  H34  1  0.82750000  0.95710000  0.45630000  1
  H  H35  1  0.60140000  0.69910000  0.48680000  1
  H  H36  1  0.65740000  0.75520000  0.47540000  1
  H  H37  1  0.04290000  0.45630000  0.17250000  1
  H  H38  1  0.30090000  0.48680000  0.39860000  1
  H  H39  1  0.24480000  0.47540000  0.34260000  1
  H  H40  1  0.95710000  0.45630000  0.82750000  1
  H  H41  1  0.69910000  0.48680000  0.60140000  1
  H  H42  1  0.75520000  0.47540000  0.65740000  1
  H  H43  1  0.82750000  0.45630000  0.95710000  1
  H  H44  1  0.60140000  0.48680000  0.69910000  1
  H  H45  1  0.65740000  0.47540000  0.75520000  1
  H  H46  1  0.17250000  0.45630000  0.04290000  1
  H  H47  1  0.39860000  0.48680000  0.30090000  1
  H  H48  1  0.34260000  0.47540000  0.24480000  1
  H  H49  1  0.95710000  0.82750000  0.45630000  1
  H  H50  1  0.69910000  0.60140000  0.48680000  1
  H  H51  1  0.75520000  0.65740000  0.47540000  1
  H  H52  1  0.04290000  0.17250000  0.45630000  1
  H  H53  1  0.30090000  0.39860000  0.48680000  1
  H  H54  1  0.24480000  0.34260000  0.47540000  1
  H  H55  1  0.45630000  0.95710000  0.82750000  1
  H  H56  1  0.48680000  0.69910000  0.60140000  1
  H  H57  1  0.47540000  0.75520000  0.65740000  1
  H  H58  1  0.45630000  0.04290000  0.17250000  1
  H  H59  1  0.48680000  0.30090000  0.39860000  1
  H  H60  1  0.47540000  0.24480000  0.34260000  1
  H  H61  1  0.45630000  0.82750000  0.04290000  1
  H  H62  1  0.48680000  0.60140000  0.30090000  1
  H  H63  1  0.47540000  0.65740000  0.24480000  1
  H  H64  1  0.45630000  0.17250000  0.95710000  1
  H  H65  1  0.48680000  0.39860000  0.69910000  1
  H  H66  1  0.47540000  0.34260000  0.75520000  1
  H  H67  1  0.17250000  0.95710000  0.45630000  1
  H  H68  1  0.39860000  0.69910000  0.48680000  1
  H  H69  1  0.34260000  0.75520000  0.47540000  1
  H  H70  1  0.82750000  0.04290000  0.45630000  1
  H  H71  1  0.60140000  0.30090000  0.48680000  1
  H  H72  1  0.65740000  0.24480000  0.47540000  1
  H  H73  1  0.95710000  0.45630000  0.17250000  1
  H  H74  1  0.69910000  0.48680000  0.39860000  1
  H  H75  1  0.75520000  0.47540000  0.34260000  1
  H  H76  1  0.04290000  0.45630000  0.82750000  1
  H  H77  1  0.30090000  0.48680000  0.60140000  1
  H  H78  1  0.24480000  0.47540000  0.65740000  1
  H  H79  1  0.81878000  0.52918000  0.18122000  1
  H  H80  1  0.81510000  0.39190000  0.18490000  1
  H  H81  1  0.87350000  0.38970000  0.12650000  1
  H  H82  1  0.87377000  0.52918000  0.12623000  1
  H  H83  1  0.18122000  0.52918000  0.81878000  1
  H  H84  1  0.18490000  0.39190000  0.81510000  1
  H  H85  1  0.12650000  0.38970000  0.87350000  1
  H  H86  1  0.12623000  0.52918000  0.87377000  1
  H  H87  1  0.18122000  0.81878000  0.52918000  1
  H  H88  1  0.18490000  0.81510000  0.39190000  1
  H  H89  1  0.12650000  0.87350000  0.38970000  1
  H  H90  1  0.12623000  0.87377000  0.52918000  1
  H  H91  1  0.81878000  0.18122000  0.52918000  1
  H  H92  1  0.81510000  0.18490000  0.39190000  1
  H  H93  1  0.87350000  0.12650000  0.38970000  1
  H  H94  1  0.87377000  0.12623000  0.52918000  1
  H  H95  1  0.52918000  0.18122000  0.81878000  1
  H  H96  1  0.39190000  0.18490000  0.81510000  1
  H  H97  1  0.38970000  0.12650000  0.87350000  1
  H  H98  1  0.52918000  0.12623000  0.87377000  1
  H  H99  1  0.52918000  0.81878000  0.18122000  1
  H  H100  1  0.39190000  0.81510000  0.18490000  1
  H  H101  1  0.38970000  0.87350000  0.12650000  1
  H  H102  1  0.52918000  0.87377000  0.12623000  1
  H  H103  1  0.52918000  0.81878000  0.81878000  1
  H  H104  1  0.39190000  0.81510000  0.81510000  1
  H  H105  1  0.38970000  0.87350000  0.87350000  1
  H  H106  1  0.52918000  0.87377000  0.87377000  1
  H  H107  1  0.52918000  0.18122000  0.18122000  1
  H  H108  1  0.39190000  0.18490000  0.18490000  1
  H  H109  1  0.38970000  0.12650000  0.12650000  1
  H  H110  1  0.52918000  0.12623000  0.12623000  1
  H  H111  1  0.18122000  0.18122000  0.52918000  1
  H  H112  1  0.18490000  0.18490000  0.39190000  1
  H  H113  1  0.12650000  0.12650000  0.38970000  1
  H  H114  1  0.12623000  0.12623000  0.52918000  1
  H  H115  1  0.81878000  0.81878000  0.52918000  1
  H  H116  1  0.81510000  0.81510000  0.39190000  1
  H  H117  1  0.87350000  0.87350000  0.38970000  1
  H  H118  1  0.87377000  0.87377000  0.52918000  1
  H  H119  1  0.18122000  0.52918000  0.18122000  1
  H  H120  1  0.18490000  0.39190000  0.18490000  1
  H  H121  1  0.12650000  0.38970000  0.12650000  1
  H  H122  1  0.12623000  0.52918000  0.12623000  1
  H  H123  1  0.81878000  0.52918000  0.81878000  1
  H  H124  1  0.81510000  0.39190000  0.81510000  1
  H  H125  1  0.87350000  0.38970000  0.87350000  1
  H  H126  1  0.87377000  0.52918000  0.87377000  1
  H  H127  1  0.95910000  0.45310000  0.00000000  1
  H  H128  1  0.04090000  0.45310000  0.00000000  1
  H  H129  1  0.45310000  0.00000000  0.95910000  1
  H  H130  1  0.45310000  0.00000000  0.04090000  1
  H  H131  1  0.45310000  0.95910000  0.00000000  1
  H  H132  1  0.45310000  0.04090000  0.00000000  1
  H  H133  1  0.00000000  0.45310000  0.04090000  1
  H  H134  1  0.00000000  0.45310000  0.95910000  1
  C  C135  1  0.66620000  0.47766000  0.27633000  1
  C  C136  1  0.90131000  0.45320000  0.03797000  1
  C  C137  1  0.85394000  0.45520000  0.02337000  1
  C  C138  1  0.63295000  0.48439000  0.30962000  1
  C  C139  1  0.33380000  0.47766000  0.72367000  1
  C  C140  1  0.09869000  0.45320000  0.96203000  1
  C  C141  1  0.14606000  0.45520000  0.97663000  1
  C  C142  1  0.36705000  0.48439000  0.69038000  1
  C  C143  1  0.27633000  0.66620000  0.47766000  1
  C  C144  1  0.03797000  0.90131000  0.45320000  1
  C  C145  1  0.02337000  0.85394000  0.45520000  1
  C  C146  1  0.30962000  0.63295000  0.48439000  1
  C  C147  1  0.72367000  0.33380000  0.47766000  1
  C  C148  1  0.96203000  0.09869000  0.45320000  1
  C  C149  1  0.97663000  0.14606000  0.45520000  1
  C  C150  1  0.69038000  0.36705000  0.48439000  1
  C  C151  1  0.47766000  0.27633000  0.66620000  1
  C  C152  1  0.45320000  0.03797000  0.90131000  1
  C  C153  1  0.45520000  0.02337000  0.85394000  1
  C  C154  1  0.48439000  0.30962000  0.63295000  1
  C  C155  1  0.47766000  0.72367000  0.33380000  1
  C  C156  1  0.45320000  0.96203000  0.09869000  1
  C  C157  1  0.45520000  0.97663000  0.14606000  1
  C  C158  1  0.48439000  0.69038000  0.36705000  1
  C  C159  1  0.47766000  0.66620000  0.72367000  1
  C  C160  1  0.45320000  0.90131000  0.96203000  1
  C  C161  1  0.45520000  0.85394000  0.97663000  1
  C  C162  1  0.48439000  0.63295000  0.69038000  1
  C  C163  1  0.47766000  0.33380000  0.27633000  1
  C  C164  1  0.45320000  0.09869000  0.03797000  1
  C  C165  1  0.45520000  0.14606000  0.02337000  1
  C  C166  1  0.48439000  0.36705000  0.30962000  1
  C  C167  1  0.33380000  0.27633000  0.47766000  1
  C  C168  1  0.09869000  0.03797000  0.45320000  1
  C  C169  1  0.14606000  0.02337000  0.45520000  1
  C  C170  1  0.36705000  0.30962000  0.48439000  1
  C  C171  1  0.66620000  0.72367000  0.47766000  1
  C  C172  1  0.90131000  0.96203000  0.45320000  1
  C  C173  1  0.85394000  0.97663000  0.45520000  1
  C  C174  1  0.63295000  0.69038000  0.48439000  1
  C  C175  1  0.27633000  0.47766000  0.33380000  1
  C  C176  1  0.03797000  0.45320000  0.09869000  1
  C  C177  1  0.02337000  0.45520000  0.14606000  1
  C  C178  1  0.30962000  0.48439000  0.36705000  1
  C  C179  1  0.72367000  0.47766000  0.66620000  1
  C  C180  1  0.96203000  0.45320000  0.90131000  1
  C  C181  1  0.97663000  0.45520000  0.85394000  1
  C  C182  1  0.69038000  0.48439000  0.63295000  1
  C  C183  1  0.66620000  0.47766000  0.72367000  1
  C  C184  1  0.90131000  0.45320000  0.96203000  1
  C  C185  1  0.85394000  0.45520000  0.97663000  1
  C  C186  1  0.63295000  0.48439000  0.69038000  1
  C  C187  1  0.33380000  0.47766000  0.27633000  1
  C  C188  1  0.09869000  0.45320000  0.03797000  1
  C  C189  1  0.14606000  0.45520000  0.02337000  1
  C  C190  1  0.36705000  0.48439000  0.30962000  1
  C  C191  1  0.72367000  0.66620000  0.47766000  1
  C  C192  1  0.96203000  0.90131000  0.45320000  1
  C  C193  1  0.97663000  0.85394000  0.45520000  1
  C  C194  1  0.69038000  0.63295000  0.48439000  1
  C  C195  1  0.27633000  0.33380000  0.47766000  1
  C  C196  1  0.03797000  0.09869000  0.45320000  1
  C  C197  1  0.02337000  0.14606000  0.45520000  1
  C  C198  1  0.30962000  0.36705000  0.48439000  1
  C  C199  1  0.47766000  0.72367000  0.66620000  1
  C  C200  1  0.45320000  0.96203000  0.90131000  1
  C  C201  1  0.45520000  0.97663000  0.85394000  1
  C  C202  1  0.48439000  0.69038000  0.63295000  1
  C  C203  1  0.47766000  0.27633000  0.33380000  1
  C  C204  1  0.45320000  0.03797000  0.09869000  1
  C  C205  1  0.45520000  0.02337000  0.14606000  1
  C  C206  1  0.48439000  0.30962000  0.36705000  1
  C  C207  1  0.47766000  0.66620000  0.27633000  1
  C  C208  1  0.45320000  0.90131000  0.03797000  1
  C  C209  1  0.45520000  0.85394000  0.02337000  1
  C  C210  1  0.48439000  0.63295000  0.30962000  1
  C  C211  1  0.47766000  0.33380000  0.72367000  1
  C  C212  1  0.45320000  0.09869000  0.96203000  1
  C  C213  1  0.45520000  0.14606000  0.97663000  1
  C  C214  1  0.48439000  0.36705000  0.69038000  1
  C  C215  1  0.33380000  0.72367000  0.47766000  1
  C  C216  1  0.09869000  0.96203000  0.45320000  1
  C  C217  1  0.14606000  0.97663000  0.45520000  1
  C  C218  1  0.36705000  0.69038000  0.48439000  1
  C  C219  1  0.66620000  0.27633000  0.47766000  1
  C  C220  1  0.90131000  0.03797000  0.45320000  1
  C  C221  1  0.85394000  0.02337000  0.45520000  1
  C  C222  1  0.63295000  0.30962000  0.48439000  1
  C  C223  1  0.72367000  0.47766000  0.33380000  1
  C  C224  1  0.96203000  0.45320000  0.09869000  1
  C  C225  1  0.97663000  0.45520000  0.14606000  1
  C  C226  1  0.69038000  0.48439000  0.36705000  1
  C  C227  1  0.27633000  0.47766000  0.66620000  1
  C  C228  1  0.03797000  0.45320000  0.90131000  1
  C  C229  1  0.02337000  0.45520000  0.85394000  1
  C  C230  1  0.30962000  0.48439000  0.63295000  1
  C  C231  1  0.60876000  0.50000000  0.39124000  1
  C  C232  1  0.86311000  0.50000000  0.13689000  1
  C  C233  1  0.82944000  0.50000000  0.17056000  1
  C  C234  1  0.39124000  0.50000000  0.39124000  1
  C  C235  1  0.13689000  0.50000000  0.13689000  1
  C  C236  1  0.17056000  0.50000000  0.17056000  1
  C  C237  1  0.39124000  0.50000000  0.60876000  1
  C  C238  1  0.13689000  0.50000000  0.86311000  1
  C  C239  1  0.17056000  0.50000000  0.82944000  1
  C  C240  1  0.60876000  0.50000000  0.60876000  1
  C  C241  1  0.86311000  0.50000000  0.86311000  1
  C  C242  1  0.82944000  0.50000000  0.82944000  1
  C  C243  1  0.39124000  0.60876000  0.50000000  1
  C  C244  1  0.13689000  0.86311000  0.50000000  1
  C  C245  1  0.17056000  0.82944000  0.50000000  1
  C  C246  1  0.39124000  0.39124000  0.50000000  1
  C  C247  1  0.13689000  0.13689000  0.50000000  1
  C  C248  1  0.17056000  0.17056000  0.50000000  1
  C  C249  1  0.60876000  0.39124000  0.50000000  1
  C  C250  1  0.86311000  0.13689000  0.50000000  1
  C  C251  1  0.82944000  0.17056000  0.50000000  1
  C  C252  1  0.60876000  0.60876000  0.50000000  1
  C  C253  1  0.86311000  0.86311000  0.50000000  1
  C  C254  1  0.82944000  0.82944000  0.50000000  1
  C  C255  1  0.50000000  0.39124000  0.60876000  1
  C  C256  1  0.50000000  0.13689000  0.86311000  1
  C  C257  1  0.50000000  0.17056000  0.82944000  1
  C  C258  1  0.50000000  0.39124000  0.39124000  1
  C  C259  1  0.50000000  0.13689000  0.13689000  1
  C  C260  1  0.50000000  0.17056000  0.17056000  1
  C  C261  1  0.50000000  0.60876000  0.39124000  1
  C  C262  1  0.50000000  0.86311000  0.13689000  1
  C  C263  1  0.50000000  0.82944000  0.17056000  1
  C  C264  1  0.50000000  0.60876000  0.60876000  1
  C  C265  1  0.50000000  0.86311000  0.86311000  1
  C  C266  1  0.50000000  0.82944000  0.82944000  1
  C  C267  1  0.64496000  0.48761000  0.35504000  1
  C  C268  1  0.71170000  0.47420000  0.28830000  1
  C  C269  1  0.74718000  0.46830000  0.25282000  1
  C  C270  1  0.77594000  0.46470000  0.22406000  1
  C  C271  1  0.81155000  0.46079000  0.18845000  1
  C  C272  1  0.82726000  0.41990000  0.17274000  1
  C  C273  1  0.86215000  0.41840000  0.13785000  1
  C  C274  1  0.87926000  0.46046000  0.12074000  1
  C  C275  1  0.91593000  0.45440000  0.08407000  1
  C  C276  1  0.35504000  0.48761000  0.64496000  1
  C  C277  1  0.28830000  0.47420000  0.71170000  1
  C  C278  1  0.25282000  0.46830000  0.74718000  1
  C  C279  1  0.22406000  0.46470000  0.77594000  1
  C  C280  1  0.18845000  0.46079000  0.81155000  1
  C  C281  1  0.17274000  0.41990000  0.82726000  1
  C  C282  1  0.13785000  0.41840000  0.86215000  1
  C  C283  1  0.12074000  0.46046000  0.87926000  1
  C  C284  1  0.08407000  0.45440000  0.91593000  1
  C  C285  1  0.35504000  0.64496000  0.48761000  1
  C  C286  1  0.28830000  0.71170000  0.47420000  1
  C  C287  1  0.25282000  0.74718000  0.46830000  1
  C  C288  1  0.22406000  0.77594000  0.46470000  1
  C  C289  1  0.18845000  0.81155000  0.46079000  1
  C  C290  1  0.17274000  0.82726000  0.41990000  1
  C  C291  1  0.13785000  0.86215000  0.41840000  1
  C  C292  1  0.12074000  0.87926000  0.46046000  1
  C  C293  1  0.08407000  0.91593000  0.45440000  1
  C  C294  1  0.64496000  0.35504000  0.48761000  1
  C  C295  1  0.71170000  0.28830000  0.47420000  1
  C  C296  1  0.74718000  0.25282000  0.46830000  1
  C  C297  1  0.77594000  0.22406000  0.46470000  1
  C  C298  1  0.81155000  0.18845000  0.46079000  1
  C  C299  1  0.82726000  0.17274000  0.41990000  1
  C  C300  1  0.86215000  0.13785000  0.41840000  1
  C  C301  1  0.87926000  0.12074000  0.46046000  1
  C  C302  1  0.91593000  0.08407000  0.45440000  1
  C  C303  1  0.48761000  0.35504000  0.64496000  1
  C  C304  1  0.47420000  0.28830000  0.71170000  1
  C  C305  1  0.46830000  0.25282000  0.74718000  1
  C  C306  1  0.46470000  0.22406000  0.77594000  1
  C  C307  1  0.46079000  0.18845000  0.81155000  1
  C  C308  1  0.41990000  0.17274000  0.82726000  1
  C  C309  1  0.41840000  0.13785000  0.86215000  1
  C  C310  1  0.46046000  0.12074000  0.87926000  1
  C  C311  1  0.45440000  0.08407000  0.91593000  1
  C  C312  1  0.48761000  0.64496000  0.35504000  1
  C  C313  1  0.47420000  0.71170000  0.28830000  1
  C  C314  1  0.46830000  0.74718000  0.25282000  1
  C  C315  1  0.46470000  0.77594000  0.22406000  1
  C  C316  1  0.46079000  0.81155000  0.18845000  1
  C  C317  1  0.41990000  0.82726000  0.17274000  1
  C  C318  1  0.41840000  0.86215000  0.13785000  1
  C  C319  1  0.46046000  0.87926000  0.12074000  1
  C  C320  1  0.45440000  0.91593000  0.08407000  1
  C  C321  1  0.48761000  0.64496000  0.64496000  1
  C  C322  1  0.47420000  0.71170000  0.71170000  1
  C  C323  1  0.46830000  0.74718000  0.74718000  1
  C  C324  1  0.46470000  0.77594000  0.77594000  1
  C  C325  1  0.46079000  0.81155000  0.81155000  1
  C  C326  1  0.41990000  0.82726000  0.82726000  1
  C  C327  1  0.41840000  0.86215000  0.86215000  1
  C  C328  1  0.46046000  0.87926000  0.87926000  1
  C  C329  1  0.45440000  0.91593000  0.91593000  1
  C  C330  1  0.48761000  0.35504000  0.35504000  1
  C  C331  1  0.47420000  0.28830000  0.28830000  1
  C  C332  1  0.46830000  0.25282000  0.25282000  1
  C  C333  1  0.46470000  0.22406000  0.22406000  1
  C  C334  1  0.46079000  0.18845000  0.18845000  1
  C  C335  1  0.41990000  0.17274000  0.17274000  1
  C  C336  1  0.41840000  0.13785000  0.13785000  1
  C  C337  1  0.46046000  0.12074000  0.12074000  1
  C  C338  1  0.45440000  0.08407000  0.08407000  1
  C  C339  1  0.35504000  0.35504000  0.48761000  1
  C  C340  1  0.28830000  0.28830000  0.47420000  1
  C  C341  1  0.25282000  0.25282000  0.46830000  1
  C  C342  1  0.22406000  0.22406000  0.46470000  1
  C  C343  1  0.18845000  0.18845000  0.46079000  1
  C  C344  1  0.17274000  0.17274000  0.41990000  1
  C  C345  1  0.13785000  0.13785000  0.41840000  1
  C  C346  1  0.12074000  0.12074000  0.46046000  1
  C  C347  1  0.08407000  0.08407000  0.45440000  1
  C  C348  1  0.64496000  0.64496000  0.48761000  1
  C  C349  1  0.71170000  0.71170000  0.47420000  1
  C  C350  1  0.74718000  0.74718000  0.46830000  1
  C  C351  1  0.77594000  0.77594000  0.46470000  1
  C  C352  1  0.81155000  0.81155000  0.46079000  1
  C  C353  1  0.82726000  0.82726000  0.41990000  1
  C  C354  1  0.86215000  0.86215000  0.41840000  1
  C  C355  1  0.87926000  0.87926000  0.46046000  1
  C  C356  1  0.91593000  0.91593000  0.45440000  1
  C  C357  1  0.35504000  0.48761000  0.35504000  1
  C  C358  1  0.28830000  0.47420000  0.28830000  1
  C  C359  1  0.25282000  0.46830000  0.25282000  1
  C  C360  1  0.22406000  0.46470000  0.22406000  1
  C  C361  1  0.18845000  0.46079000  0.18845000  1
  C  C362  1  0.17274000  0.41990000  0.17274000  1
  C  C363  1  0.13785000  0.41840000  0.13785000  1
  C  C364  1  0.12074000  0.46046000  0.12074000  1
  C  C365  1  0.08407000  0.45440000  0.08407000  1
  C  C366  1  0.64496000  0.48761000  0.64496000  1
  C  C367  1  0.71170000  0.47420000  0.71170000  1
  C  C368  1  0.74718000  0.46830000  0.74718000  1
  C  C369  1  0.77594000  0.46470000  0.77594000  1
  C  C370  1  0.81155000  0.46079000  0.81155000  1
  C  C371  1  0.82726000  0.41990000  0.82726000  1
  C  C372  1  0.86215000  0.41840000  0.86215000  1
  C  C373  1  0.87926000  0.46046000  0.87926000  1
  C  C374  1  0.91593000  0.45440000  0.91593000  1
  N  N375  1  0.92870000  0.45320000  0.00000000  1
  N  N376  1  0.07130000  0.45320000  0.00000000  1
  N  N377  1  0.00000000  0.92870000  0.45320000  1
  N  N378  1  0.00000000  0.07130000  0.45320000  1
  N  N379  1  0.45320000  0.00000000  0.92870000  1
  N  N380  1  0.45320000  0.00000000  0.07130000  1
  N  N381  1  0.45320000  0.92870000  0.00000000  1
  N  N382  1  0.45320000  0.07130000  0.00000000  1
  N  N383  1  0.07130000  0.00000000  0.45320000  1
  N  N384  1  0.92870000  0.00000000  0.45320000  1
  N  N385  1  0.00000000  0.45320000  0.07130000  1
  N  N386  1  0.00000000  0.45320000  0.92870000  1
  O  O387  1  0.56723000  0.50000000  0.37755000  1
  O  O388  1  0.43277000  0.50000000  0.37755000  1
  O  O389  1  0.43277000  0.50000000  0.62245000  1
  O  O390  1  0.56723000  0.50000000  0.62245000  1
  O  O391  1  0.37755000  0.56723000  0.50000000  1
  O  O392  1  0.37755000  0.43277000  0.50000000  1
  O  O393  1  0.62245000  0.43277000  0.50000000  1
  O  O394  1  0.62245000  0.56723000  0.50000000  1
  O  O395  1  0.50000000  0.37755000  0.56723000  1
  O  O396  1  0.50000000  0.37755000  0.43277000  1
  O  O397  1  0.50000000  0.62245000  0.43277000  1
  O  O398  1  0.50000000  0.62245000  0.56723000  1
  O  O399  1  0.50000000  0.56723000  0.62245000  1
  O  O400  1  0.50000000  0.43277000  0.62245000  1
  O  O401  1  0.50000000  0.43277000  0.37755000  1
  O  O402  1  0.50000000  0.56723000  0.37755000  1
  O  O403  1  0.56723000  0.37755000  0.50000000  1
  O  O404  1  0.43277000  0.37755000  0.50000000  1
  O  O405  1  0.43277000  0.62245000  0.50000000  1
  O  O406  1  0.56723000  0.62245000  0.50000000  1
  O  O407  1  0.37755000  0.50000000  0.43277000  1
  O  O408  1  0.37755000  0.50000000  0.56723000  1
  O  O409  1  0.62245000  0.50000000  0.56723000  1
  O  O410  1  0.62245000  0.50000000  0.43277000  1
  O  O411  1  0.54220000  0.54220000  0.45780000  1
  O  O412  1  0.45780000  0.45780000  0.45780000  1
  O  O413  1  0.45780000  0.54220000  0.54220000  1
  O  O414  1  0.54220000  0.45780000  0.54220000  1
  O  O415  1  0.54220000  0.54220000  0.54220000  1
  O  O416  1  0.45780000  0.45780000  0.54220000  1
  O  O417  1  0.54220000  0.45780000  0.45780000  1
  O  O418  1  0.45780000  0.54220000  0.45780000  1
