# generated using pymatgen
data_ZrH4(C3O2)5
_symmetry_space_group_name_H-M   'P 1'
_cell_length_a   14.98520000
_cell_length_b   18.11717917
_cell_length_c   18.11717917
_cell_angle_alpha   80.15202257
_cell_angle_beta   65.57112823
_cell_angle_gamma   65.57112823
_symmetry_Int_Tables_number   1
_chemical_formula_structural   ZrH4(C3O2)5
_chemical_formula_sum   'Zr8 H32 C120 O80'
_cell_volume   4077.36991803
_cell_formula_units_Z   8
loop_
 _symmetry_equiv_pos_site_id
 _symmetry_equiv_pos_as_xyz
  1  'x, y, z'
loop_
 _atom_site_type_symbol
 _atom_site_label
 _atom_site_symmetry_multiplicity
 _atom_site_fract_x
 _atom_site_fract_y
 _atom_site_fract_z
 _atom_site_occupancy
  C  C0  1  0.75283800  0.01034800  0.90481000  1
  C  C1  1  0.71693900  0.96147500  0.88581900  1
  C  C2  1  0.78573900  0.88776100  0.85182500  1
  C  C3  1  0.89043700  0.86292100  0.83682300  1
  C  C4  1  0.92633600  0.91179400  0.85581400  1
  C  C5  1  0.85753700  0.98550700  0.88980700  1
  C  C6  1  0.67428700  0.09450800  0.94362200  1
  C  C7  1  0.25680600  0.47647700  0.62607100  1
  C  C8  1  0.15329300  0.50409900  0.63628100  1
  C  C9  1  0.08582500  0.57902800  0.66776800  1
  C  C10  1  0.12187100  0.62633400  0.68904400  1
  C  C11  1  0.22538400  0.59871200  0.67883400  1
  C  C12  1  0.29285200  0.52378300  0.64734700  1
  C  C13  1  0.33383600  0.39092900  0.59012100  1
  C  C14  1  0.37290500  0.26753200  0.53162800  1
  C  C15  1  0.26318600  0.90481000  0.48965200  1
  C  C16  1  0.17841400  0.88581900  0.53852500  1
  C  C17  1  0.17350000  0.85182500  0.61223900  1
  C  C18  1  0.25335800  0.83682300  0.63707900  1
  C  C19  1  0.33813000  0.85581400  0.58820600  1
  C  C20  1  0.34304400  0.88980700  0.51449300  1
  C  C21  1  0.26879500  0.94362200  0.40549200  1
  C  C22  1  0.23328300  0.62607100  0.02352300  1
  C  C23  1  0.15739200  0.63628100  0.99590100  1
  C  C24  1  0.16485300  0.66776800  0.92097200  1
  C  C25  1  0.24820500  0.68904400  0.87366600  1
  C  C26  1  0.32409600  0.67883400  0.90128800  1
  C  C27  1  0.31663500  0.64734700  0.97621700  1
  C  C28  1  0.22476500  0.59012100  0.10907100  1
  C  C29  1  0.14043700  0.53162800  0.23246800  1
  C  C30  1  0.66799600  0.48965200  0.59519000  1
  C  C31  1  0.56423300  0.53852500  0.61418100  1
  C  C32  1  0.52532500  0.61223900  0.64817500  1
  C  C33  1  0.59018100  0.63707900  0.66317700  1
  C  C34  1  0.69394400  0.58820600  0.64418600  1
  C  C35  1  0.73285100  0.51449300  0.61019300  1
  C  C36  1  0.71241700  0.40549200  0.55637800  1
  C  C37  1  0.35935400  0.02352300  0.87392900  1
  C  C38  1  0.29367300  0.99590100  0.86371900  1
  C  C39  1  0.33262100  0.92097200  0.83223200  1
  C  C40  1  0.43724900  0.87366600  0.81095600  1
  C  C41  1  0.50293000  0.90128800  0.82116600  1
  C  C42  1  0.46398200  0.97621700  0.85265300  1
  C  C43  1  0.31488600  0.10907100  0.90987900  1
  C  C44  1  0.17206500  0.23246800  0.96837200  1
  C  C45  1  0.65764800  0.59519000  0.01034800  1
  C  C46  1  0.60275800  0.61418100  0.96147500  1
  C  C47  1  0.63756400  0.64817500  0.88776100  1
  C  C48  1  0.72726000  0.66317700  0.86292100  1
  C  C49  1  0.78215000  0.64418600  0.91179400  1
  C  C50  1  0.74734400  0.61019300  0.98550700  1
  C  C51  1  0.61790900  0.55637800  0.09450800  1
  C  C52  1  0.88287700  0.87392900  0.47647700  1
  C  C53  1  0.78957400  0.86371900  0.50409900  1
  C  C54  1  0.75359300  0.83223200  0.57902800  1
  C  C55  1  0.81091500  0.81095600  0.62633400  1
  C  C56  1  0.90421800  0.82116600  0.59871200  1
  C  C57  1  0.94019900  0.85265300  0.52378300  1
  C  C58  1  0.92395700  0.90987900  0.39092900  1
  C  C59  1  0.90453300  0.96837200  0.26753200  1
  C  C60  1  0.24716200  0.98965200  0.09519000  1
  C  C61  1  0.28306100  0.03852500  0.11418100  1
  C  C62  1  0.21426100  0.11223900  0.14817500  1
  C  C63  1  0.10956300  0.13707900  0.16317700  1
  C  C64  1  0.07366400  0.08820600  0.14418600  1
  C  C65  1  0.14246300  0.01449300  0.11019300  1
  C  C66  1  0.32571300  0.90549200  0.05637800  1
  C  C67  1  0.74319400  0.52352300  0.37392900  1
  C  C68  1  0.84670700  0.49590100  0.36371900  1
  C  C69  1  0.91417500  0.42097200  0.33223200  1
  C  C70  1  0.87812900  0.37366600  0.31095600  1
  C  C71  1  0.77461600  0.40128800  0.32116600  1
  C  C72  1  0.70714800  0.47621700  0.35265300  1
  C  C73  1  0.66616400  0.60907100  0.40987900  1
  C  C74  1  0.62709500  0.73246800  0.46837200  1
  C  C75  1  0.73681400  0.09519000  0.51034800  1
  C  C76  1  0.82158600  0.11418100  0.46147500  1
  C  C77  1  0.82650000  0.14817500  0.38776100  1
  C  C78  1  0.74664200  0.16317700  0.36292100  1
  C  C79  1  0.66187000  0.14418600  0.41179400  1
  C  C80  1  0.65695600  0.11019300  0.48550700  1
  C  C81  1  0.73120500  0.05637800  0.59450800  1
  C  C82  1  0.76671700  0.37392900  0.97647700  1
  C  C83  1  0.84260800  0.36371900  0.00409900  1
  C  C84  1  0.83514700  0.33223200  0.07902800  1
  C  C85  1  0.75179500  0.31095600  0.12633400  1
  C  C86  1  0.67590400  0.32116600  0.09871200  1
  C  C87  1  0.68336500  0.35265300  0.02378300  1
  C  C88  1  0.77523500  0.40987900  0.89092900  1
  C  C89  1  0.85956300  0.46837200  0.76753200  1
  C  C90  1  0.33200400  0.51034800  0.40481000  1
  C  C91  1  0.43576700  0.46147500  0.38581900  1
  C  C92  1  0.47467500  0.38776100  0.35182500  1
  C  C93  1  0.40981900  0.36292100  0.33682300  1
  C  C94  1  0.30605600  0.41179400  0.35581400  1
  C  C95  1  0.26714900  0.48550700  0.38980700  1
  C  C96  1  0.28758300  0.59450800  0.44362200  1
  C  C97  1  0.64064600  0.97647700  0.12607100  1
  C  C98  1  0.70632700  0.00409900  0.13628100  1
  C  C99  1  0.66737900  0.07902800  0.16776800  1
  C  C100  1  0.56275100  0.12633400  0.18904400  1
  C  C101  1  0.49707000  0.09871200  0.17883400  1
  C  C102  1  0.53601800  0.02378300  0.14734700  1
  C  C103  1  0.68511400  0.89092900  0.09012100  1
  C  C104  1  0.82793500  0.76753200  0.03162800  1
  C  C105  1  0.34235200  0.40481000  0.98965200  1
  C  C106  1  0.39724200  0.38581900  0.03852500  1
  C  C107  1  0.36243600  0.35182500  0.11223900  1
  C  C108  1  0.27274000  0.33682300  0.13707900  1
  C  C109  1  0.21785000  0.35581400  0.08820600  1
  C  C110  1  0.25265600  0.38980700  0.01449300  1
  C  C111  1  0.38209100  0.44362200  0.90549200  1
  C  C112  1  0.11712300  0.12607100  0.52352300  1
  C  C113  1  0.21042600  0.13628100  0.49590100  1
  C  C114  1  0.24640700  0.16776800  0.42097200  1
  C  C115  1  0.18908500  0.18904400  0.37366600  1
  C  C116  1  0.09578200  0.17883400  0.40128800  1
  C  C117  1  0.05980100  0.14734700  0.47621700  1
  C  C118  1  0.07604300  0.09012100  0.60907100  1
  C  C119  1  0.09546700  0.03162800  0.73246800  1
  H  H120  1  0.64136000  0.97940700  0.89664900  1
  H  H121  1  0.88345000  0.02078700  0.90351700  1
  H  H122  1  0.12727300  0.46995000  0.62092200  1
  H  H123  1  0.36757600  0.50384400  0.63997600  1
  H  H124  1  0.12076700  0.89664900  0.52059300  1
  H  H125  1  0.40423700  0.90351700  0.47921300  1
  H  H126  1  0.09722300  0.62092200  0.03005000  1
  H  H127  1  0.37142000  0.63997600  0.99615600  1
  H  H128  1  0.51741600  0.52059300  0.60335100  1
  H  H129  1  0.80775400  0.47921300  0.59648300  1
  H  H130  1  0.21814500  0.03005000  0.87907800  1
  H  H131  1  0.51139600  0.99615600  0.86002400  1
  H  H132  1  0.53800900  0.60335100  0.97940700  1
  H  H133  1  0.78696700  0.59648300  0.02078700  1
  H  H134  1  0.74819500  0.87907800  0.46995000  1
  H  H135  1  0.00755200  0.86002400  0.50384400  1
  H  H136  1  0.35864000  0.02059300  0.10335100  1
  H  H137  1  0.11655000  0.97921300  0.09648300  1
  H  H138  1  0.87272700  0.53005000  0.37907800  1
  H  H139  1  0.63242400  0.49615600  0.36002400  1
  H  H140  1  0.87923300  0.10335100  0.47940700  1
  H  H141  1  0.59576300  0.09648300  0.52078700  1
  H  H142  1  0.90277700  0.37907800  0.96995000  1
  H  H143  1  0.62858000  0.36002400  0.00384400  1
  H  H144  1  0.48258400  0.47940700  0.39664900  1
  H  H145  1  0.19224600  0.52078700  0.40351700  1
  H  H146  1  0.78185500  0.96995000  0.12092200  1
  H  H147  1  0.48860400  0.00384400  0.13997600  1
  H  H148  1  0.46199100  0.39664900  0.02059300  1
  H  H149  1  0.21303300  0.40351700  0.97921300  1
  H  H150  1  0.25180500  0.12092200  0.53005000  1
  H  H151  1  0.99244800  0.13997600  0.49615600  1
  O  O152  1  0.57434100  0.11890500  0.95664700  1
  O  O153  1  0.70835200  0.14069400  0.96315600  1
  O  O154  1  0.75942200  0.83268000  0.82980600  1
  O  O155  1  0.95225000  0.79172900  0.80419300  1
  O  O156  1  0.03413500  0.87921900  0.83742300  1
  O  O157  1  0.30085400  0.34756400  0.56525800  1
  O  O158  1  0.43137400  0.36253400  0.58483000  1
  O  O159  1  0.97931000  0.61443100  0.68131900  1
  O  O160  1  0.06567000  0.69884700  0.71967700  1
  O  O161  1  0.25198200  0.65244700  0.70274700  1
  O  O162  1  0.09210200  0.82980600  0.66732000  1
  O  O163  1  0.24397900  0.80419300  0.70827100  1
  O  O164  1  0.09374100  0.68131900  0.88556900  1
  O  O165  1  0.26451700  0.71967700  0.80115300  1
  O  O166  1  0.19324600  0.95664700  0.38109500  1
  O  O167  1  0.34904600  0.96315600  0.35930600  1
  O  O168  1  0.41335400  0.83742300  0.62078100  1
  O  O169  1  0.14841800  0.56525800  0.15243600  1
  O  O170  1  0.29390800  0.58483000  0.13746600  1
  O  O171  1  0.40442900  0.70274700  0.84755300  1
  O  O172  1  0.42190800  0.66732000  0.67019400  1
  O  O173  1  0.54817200  0.70827100  0.69580700  1
  O  O174  1  0.27506000  0.88556900  0.81868100  1
  O  O175  1  0.48419400  0.80115300  0.78032300  1
  O  O176  1  0.64989300  0.38109500  0.54335300  1
  O  O177  1  0.81220200  0.35930600  0.53684400  1
  O  O178  1  0.75077700  0.62078100  0.66257700  1
  O  O179  1  0.21367600  0.15243600  0.93474200  1
  O  O180  1  0.37873800  0.13746600  0.91517000  1
  O  O181  1  0.60717600  0.84755300  0.79725300  1
  O  O182  1  0.58922800  0.67019400  0.83268000  1
  O  O183  1  0.75644300  0.69580700  0.79172900  1
  O  O184  1  0.66062900  0.81868100  0.61443100  1
  O  O185  1  0.78534700  0.78032300  0.69884700  1
  O  O186  1  0.53098800  0.54335300  0.11890500  1
  O  O187  1  0.67150800  0.53684400  0.14069400  1
  O  O188  1  0.87155800  0.66257700  0.87921900  1
  O  O189  1  0.86611200  0.93474200  0.34756400  1
  O  O190  1  0.01620400  0.91517000  0.36253400  1
  O  O191  1  0.95472900  0.79725300  0.65244700  1
  O  O192  1  0.42565900  0.88109500  0.04335300  1
  O  O193  1  0.29164800  0.85930600  0.03684400  1
  O  O194  1  0.24057800  0.16732000  0.17019400  1
  O  O195  1  0.04775000  0.20827100  0.19580700  1
  O  O196  1  0.96586500  0.12078100  0.16257700  1
  O  O197  1  0.69914600  0.65243600  0.43474200  1
  O  O198  1  0.56862600  0.63746600  0.41517000  1
  O  O199  1  0.02069000  0.38556900  0.31868100  1
  O  O200  1  0.93433000  0.30115300  0.28032300  1
  O  O201  1  0.74801800  0.34755300  0.29725300  1
  O  O202  1  0.90789800  0.17019400  0.33268000  1
  O  O203  1  0.75602100  0.19580700  0.29172900  1
  O  O204  1  0.90625900  0.31868100  0.11443100  1
  O  O205  1  0.73548300  0.28032300  0.19884700  1
  O  O206  1  0.80675400  0.04335300  0.61890500  1
  O  O207  1  0.65095400  0.03684400  0.64069400  1
  O  O208  1  0.58664600  0.16257700  0.37921900  1
  O  O209  1  0.85158200  0.43474200  0.84756400  1
  O  O210  1  0.70609200  0.41517000  0.86253400  1
  O  O211  1  0.59557100  0.29725300  0.15244700  1
  O  O212  1  0.57809200  0.33268000  0.32980600  1
  O  O213  1  0.45182800  0.29172900  0.30419300  1
  O  O214  1  0.72494000  0.11443100  0.18131900  1
  O  O215  1  0.51580600  0.19884700  0.21967700  1
  O  O216  1  0.35010700  0.61890500  0.45664700  1
  O  O217  1  0.18779800  0.64069400  0.46315600  1
  O  O218  1  0.24922300  0.37921900  0.33742300  1
  O  O219  1  0.78632400  0.84756400  0.06525800  1
  O  O220  1  0.62126200  0.86253400  0.08483000  1
  O  O221  1  0.39282400  0.15244700  0.20274700  1
  O  O222  1  0.41077200  0.32980600  0.16732000  1
  O  O223  1  0.24355700  0.30419300  0.20827100  1
  O  O224  1  0.33937100  0.18131900  0.38556900  1
  O  O225  1  0.21465300  0.21967700  0.30115300  1
  O  O226  1  0.46901200  0.45664700  0.88109500  1
  O  O227  1  0.32849200  0.46315600  0.85930600  1
  O  O228  1  0.12844200  0.33742300  0.12078100  1
  O  O229  1  0.13388800  0.06525800  0.65243600  1
  O  O230  1  0.98379600  0.08483000  0.63746600  1
  O  O231  1  0.04527100  0.20274700  0.34755300  1
  Zr  Zr232  1  0.12101000  0.75832000  0.77536000  1
  Zr  Zr233  1  0.89637000  0.72464000  0.75832000  1
  Zr  Zr234  1  0.37933000  0.77536000  0.74168000  1
  Zr  Zr235  1  0.65469000  0.74168000  0.72464000  1
  Zr  Zr236  1  0.87899000  0.24168000  0.22464000  1
  Zr  Zr237  1  0.10363000  0.27536000  0.24168000  1
  Zr  Zr238  1  0.62067000  0.22464000  0.25832000  1
  Zr  Zr239  1  0.34531000  0.25832000  0.27536000  1
