# generated using pymatgen
data_Zr3H18(C15O8)2
_symmetry_space_group_name_H-M   'P 1'
_cell_length_a   23.86490000
_cell_length_b   23.86490000
_cell_length_c   23.86490000
_cell_angle_alpha   90.00000000
_cell_angle_beta   90.00000000
_cell_angle_gamma   90.00000000
_symmetry_Int_Tables_number   1
_chemical_formula_structural   Zr3H18(C15O8)2
_chemical_formula_sum   'Zr24 H144 C240 O128'
_cell_volume   13591.85887887
_cell_formula_units_Z   8
loop_
 _symmetry_equiv_pos_site_id
 _symmetry_equiv_pos_as_xyz
  1  'x, y, z'
loop_
 _atom_site_type_symbol
 _atom_site_label
 _atom_site_symmetry_multiplicity
 _atom_site_fract_x
 _atom_site_fract_y
 _atom_site_fract_z
 _atom_site_occupancy
  Zr  Zr0  1  0.60318000  0.00590000  0.50744000  1
  Zr  Zr1  1  0.89682000  0.49410000  0.50744000  1
  Zr  Zr2  1  0.89682000  0.00590000  0.99256000  1
  Zr  Zr3  1  0.60318000  0.49410000  0.99256000  1
  Zr  Zr4  1  0.50744000  0.60318000  0.00590000  1
  Zr  Zr5  1  0.50744000  0.89682000  0.49410000  1
  Zr  Zr6  1  0.99256000  0.89682000  0.00590000  1
  Zr  Zr7  1  0.99256000  0.60318000  0.49410000  1
  Zr  Zr8  1  0.00590000  0.50744000  0.60318000  1
  Zr  Zr9  1  0.49410000  0.50744000  0.89682000  1
  Zr  Zr10  1  0.00590000  0.99256000  0.89682000  1
  Zr  Zr11  1  0.49410000  0.99256000  0.60318000  1
  Zr  Zr12  1  0.39682000  0.99410000  0.49256000  1
  Zr  Zr13  1  0.10318000  0.50590000  0.49256000  1
  Zr  Zr14  1  0.10318000  0.99410000  0.00744000  1
  Zr  Zr15  1  0.39682000  0.50590000  0.00744000  1
  Zr  Zr16  1  0.49256000  0.39682000  0.99410000  1
  Zr  Zr17  1  0.49256000  0.10318000  0.50590000  1
  Zr  Zr18  1  0.00744000  0.10318000  0.99410000  1
  Zr  Zr19  1  0.00744000  0.39682000  0.50590000  1
  Zr  Zr20  1  0.99410000  0.49256000  0.39682000  1
  Zr  Zr21  1  0.50590000  0.49256000  0.10318000  1
  Zr  Zr22  1  0.99410000  0.00744000  0.10318000  1
  Zr  Zr23  1  0.50590000  0.00744000  0.39682000  1
  H  H24  1  0.72990000  0.14020000  0.51680000  1
  H  H25  1  0.73310000  0.01980000  0.63870000  1
  H  H26  1  0.77010000  0.35980000  0.51680000  1
  H  H27  1  0.82390000  0.17970000  0.51270000  1
  H  H28  1  0.88900000  0.25020000  0.50910000  1
  H  H29  1  0.76690000  0.48020000  0.63870000  1
  H  H30  1  0.82500000  0.49070000  0.82010000  1
  H  H31  1  0.88960000  0.49020000  0.74730000  1
  H  H32  1  0.77010000  0.14020000  0.98320000  1
  H  H33  1  0.76690000  0.01980000  0.86130000  1
  H  H34  1  0.82500000  0.00930000  0.67990000  1
  H  H35  1  0.88960000  0.00980000  0.75270000  1
  H  H36  1  0.72990000  0.35980000  0.98320000  1
  H  H37  1  0.67610000  0.17970000  0.98730000  1
  H  H38  1  0.61100000  0.25020000  0.99090000  1
  H  H39  1  0.73310000  0.48020000  0.86130000  1
  H  H40  1  0.51680000  0.72990000  0.14020000  1
  H  H41  1  0.63870000  0.73310000  0.01980000  1
  H  H42  1  0.82010000  0.67500000  0.00930000  1
  H  H43  1  0.74730000  0.61040000  0.00980000  1
  H  H44  1  0.51680000  0.77010000  0.35980000  1
  H  H45  1  0.51270000  0.82390000  0.17970000  1
  H  H46  1  0.50910000  0.88900000  0.25020000  1
  H  H47  1  0.63870000  0.76690000  0.48020000  1
  H  H48  1  0.82010000  0.82500000  0.49070000  1
  H  H49  1  0.74730000  0.88960000  0.49020000  1
  H  H50  1  0.98320000  0.77010000  0.14020000  1
  H  H51  1  0.86130000  0.76690000  0.01980000  1
  H  H52  1  0.98320000  0.72990000  0.35980000  1
  H  H53  1  0.98730000  0.67610000  0.17970000  1
  H  H54  1  0.99090000  0.61100000  0.25020000  1
  H  H55  1  0.86130000  0.73310000  0.48020000  1
  H  H56  1  0.14020000  0.51680000  0.72990000  1
  H  H57  1  0.01980000  0.63870000  0.73310000  1
  H  H58  1  0.00930000  0.82010000  0.67500000  1
  H  H59  1  0.00980000  0.74730000  0.61040000  1
  H  H60  1  0.35980000  0.51680000  0.77010000  1
  H  H61  1  0.17970000  0.51270000  0.82390000  1
  H  H62  1  0.25020000  0.50910000  0.88900000  1
  H  H63  1  0.48020000  0.63870000  0.76690000  1
  H  H64  1  0.14020000  0.98320000  0.77010000  1
  H  H65  1  0.01980000  0.86130000  0.76690000  1
  H  H66  1  0.35980000  0.98320000  0.72990000  1
  H  H67  1  0.17970000  0.98730000  0.67610000  1
  H  H68  1  0.25020000  0.99090000  0.61100000  1
  H  H69  1  0.48020000  0.86130000  0.73310000  1
  H  H70  1  0.49070000  0.67990000  0.67500000  1
  H  H71  1  0.49020000  0.75270000  0.61040000  1
  H  H72  1  0.27010000  0.85980000  0.48320000  1
  H  H73  1  0.32390000  0.67970000  0.48730000  1
  H  H74  1  0.38900000  0.75020000  0.49090000  1
  H  H75  1  0.26690000  0.98020000  0.36130000  1
  H  H76  1  0.22990000  0.64020000  0.48320000  1
  H  H77  1  0.23310000  0.51980000  0.36130000  1
  H  H78  1  0.17500000  0.50930000  0.17990000  1
  H  H79  1  0.11040000  0.50980000  0.25270000  1
  H  H80  1  0.22990000  0.85980000  0.01680000  1
  H  H81  1  0.17610000  0.67970000  0.01270000  1
  H  H82  1  0.11100000  0.75020000  0.00910000  1
  H  H83  1  0.23310000  0.98020000  0.13870000  1
  H  H84  1  0.17500000  0.99070000  0.32010000  1
  H  H85  1  0.11040000  0.99020000  0.24730000  1
  H  H86  1  0.27010000  0.64020000  0.01680000  1
  H  H87  1  0.26690000  0.51980000  0.13870000  1
  H  H88  1  0.48320000  0.27010000  0.85980000  1
  H  H89  1  0.36130000  0.26690000  0.98020000  1
  H  H90  1  0.17990000  0.32500000  0.99070000  1
  H  H91  1  0.25270000  0.38960000  0.99020000  1
  H  H92  1  0.48320000  0.22990000  0.64020000  1
  H  H93  1  0.48730000  0.17610000  0.82030000  1
  H  H94  1  0.49090000  0.11100000  0.74980000  1
  H  H95  1  0.36130000  0.23310000  0.51980000  1
  H  H96  1  0.17990000  0.17500000  0.50930000  1
  H  H97  1  0.25270000  0.11040000  0.50980000  1
  H  H98  1  0.01680000  0.22990000  0.85980000  1
  H  H99  1  0.13870000  0.23310000  0.98020000  1
  H  H100  1  0.01680000  0.27010000  0.64020000  1
  H  H101  1  0.01270000  0.32390000  0.82030000  1
  H  H102  1  0.00910000  0.38900000  0.74980000  1
  H  H103  1  0.13870000  0.26690000  0.51980000  1
  H  H104  1  0.85980000  0.48320000  0.27010000  1
  H  H105  1  0.67970000  0.48730000  0.32390000  1
  H  H106  1  0.75020000  0.49090000  0.38900000  1
  H  H107  1  0.98020000  0.36130000  0.26690000  1
  H  H108  1  0.64020000  0.48320000  0.22990000  1
  H  H109  1  0.51980000  0.36130000  0.23310000  1
  H  H110  1  0.50930000  0.17990000  0.17500000  1
  H  H111  1  0.50980000  0.25270000  0.11040000  1
  H  H112  1  0.85980000  0.01680000  0.22990000  1
  H  H113  1  0.98020000  0.13870000  0.23310000  1
  H  H114  1  0.99070000  0.32010000  0.17500000  1
  H  H115  1  0.99020000  0.24730000  0.11040000  1
  H  H116  1  0.64020000  0.01680000  0.27010000  1
  H  H117  1  0.82030000  0.01270000  0.32390000  1
  H  H118  1  0.74980000  0.00910000  0.38900000  1
  H  H119  1  0.51980000  0.13870000  0.26690000  1
  H  H120  1  0.71667000  0.69594000  0.48304000  1
  H  H121  1  0.77000000  0.64814000  0.49175000  1
  H  H122  1  0.77000000  0.85186000  0.00825000  1
  H  H123  1  0.71667000  0.80406000  0.01696000  1
  H  H124  1  0.19487000  0.78723000  0.48592000  1
  H  H125  1  0.14752000  0.73286000  0.48561000  1
  H  H126  1  0.35248000  0.73286000  0.01439000  1
  H  H127  1  0.30513000  0.78723000  0.01408000  1
  H  H128  1  0.69487000  0.28723000  0.51408000  1
  H  H129  1  0.64752000  0.23286000  0.51439000  1
  H  H130  1  0.80513000  0.28723000  0.98592000  1
  H  H131  1  0.85248000  0.23286000  0.98561000  1
  H  H132  1  0.23000000  0.14814000  0.99175000  1
  H  H133  1  0.28333000  0.19594000  0.98304000  1
  H  H134  1  0.23000000  0.35186000  0.50825000  1
  H  H135  1  0.28333000  0.30406000  0.51696000  1
  H  H136  1  0.48304000  0.78333000  0.80406000  1
  H  H137  1  0.49175000  0.73000000  0.85186000  1
  H  H138  1  0.01696000  0.71667000  0.80406000  1
  H  H139  1  0.00825000  0.77000000  0.85186000  1
  H  H140  1  0.51439000  0.64752000  0.23286000  1
  H  H141  1  0.51408000  0.69487000  0.28723000  1
  H  H142  1  0.98561000  0.85248000  0.23286000  1
  H  H143  1  0.98592000  0.80513000  0.28723000  1
  H  H144  1  0.01439000  0.14752000  0.76714000  1
  H  H145  1  0.01408000  0.19487000  0.71277000  1
  H  H146  1  0.48561000  0.35248000  0.76714000  1
  H  H147  1  0.48592000  0.30513000  0.71277000  1
  H  H148  1  0.51696000  0.28333000  0.30406000  1
  H  H149  1  0.50825000  0.23000000  0.35186000  1
  H  H150  1  0.99175000  0.27000000  0.35186000  1
  H  H151  1  0.98304000  0.21667000  0.30406000  1
  H  H152  1  0.64814000  0.00825000  0.73000000  1
  H  H153  1  0.69594000  0.01696000  0.78333000  1
  H  H154  1  0.69594000  0.48304000  0.71667000  1
  H  H155  1  0.64814000  0.49175000  0.77000000  1
  H  H156  1  0.76714000  0.01439000  0.14752000  1
  H  H157  1  0.71277000  0.01408000  0.19487000  1
  H  H158  1  0.78723000  0.48592000  0.19487000  1
  H  H159  1  0.73286000  0.48561000  0.14752000  1
  H  H160  1  0.30406000  0.51696000  0.28333000  1
  H  H161  1  0.35186000  0.50825000  0.23000000  1
  H  H162  1  0.35186000  0.99175000  0.27000000  1
  H  H163  1  0.30406000  0.98304000  0.21667000  1
  H  H164  1  0.23286000  0.51439000  0.64752000  1
  H  H165  1  0.28723000  0.51408000  0.69487000  1
  H  H166  1  0.23286000  0.98561000  0.85248000  1
  H  H167  1  0.28723000  0.98592000  0.80513000  1
  C  C168  1  0.62170000  0.14000000  0.51350000  1
  C  C169  1  0.66310000  0.18770000  0.51450000  1
  C  C170  1  0.71710000  0.17790000  0.51550000  1
  C  C171  1  0.75850000  0.22310000  0.51470000  1
  C  C172  1  0.66450000  0.01090000  0.68520000  1
  C  C173  1  0.71900000  0.01620000  0.67580000  1
  C  C174  1  0.75680000  0.01660000  0.72360000  1
  C  C175  1  0.62280000  0.00820000  0.63850000  1
  C  C176  1  0.87830000  0.36000000  0.51350000  1
  C  C177  1  0.83690000  0.31230000  0.51450000  1
  C  C178  1  0.78290000  0.32210000  0.51550000  1
  C  C179  1  0.74150000  0.27690000  0.51470000  1
  C  C180  1  0.81020000  0.21710000  0.51310000  1
  C  C181  1  0.85050000  0.26000000  0.51190000  1
  C  C182  1  0.83550000  0.48910000  0.68520000  1
  C  C183  1  0.78100000  0.48380000  0.67580000  1
  C  C184  1  0.74320000  0.48340000  0.72360000  1
  C  C185  1  0.81110000  0.48800000  0.78290000  1
  C  C186  1  0.85080000  0.48930000  0.73850000  1
  C  C187  1  0.87720000  0.49180000  0.63850000  1
  C  C188  1  0.87830000  0.14000000  0.98650000  1
  C  C189  1  0.83690000  0.18770000  0.98550000  1
  C  C190  1  0.78290000  0.17790000  0.98450000  1
  C  C191  1  0.74150000  0.22310000  0.98530000  1
  C  C192  1  0.83550000  0.01090000  0.81480000  1
  C  C193  1  0.78100000  0.01620000  0.82420000  1
  C  C194  1  0.74320000  0.01660000  0.77640000  1
  C  C195  1  0.81110000  0.01200000  0.71710000  1
  C  C196  1  0.85080000  0.01070000  0.76150000  1
  C  C197  1  0.87720000  0.00820000  0.86150000  1
  C  C198  1  0.62170000  0.36000000  0.98650000  1
  C  C199  1  0.66310000  0.31230000  0.98550000  1
  C  C200  1  0.71710000  0.32210000  0.98450000  1
  C  C201  1  0.75850000  0.27690000  0.98530000  1
  C  C202  1  0.68980000  0.21710000  0.98690000  1
  C  C203  1  0.64950000  0.26000000  0.98810000  1
  C  C204  1  0.66450000  0.48910000  0.81480000  1
  C  C205  1  0.71900000  0.48380000  0.82420000  1
  C  C206  1  0.75680000  0.48340000  0.77640000  1
  C  C207  1  0.62280000  0.49180000  0.86150000  1
  C  C208  1  0.51350000  0.62170000  0.14000000  1
  C  C209  1  0.51450000  0.66310000  0.18770000  1
  C  C210  1  0.51550000  0.71710000  0.17790000  1
  C  C211  1  0.51470000  0.75850000  0.22310000  1
  C  C212  1  0.68520000  0.66450000  0.01090000  1
  C  C213  1  0.67580000  0.71900000  0.01620000  1
  C  C214  1  0.72360000  0.75680000  0.01660000  1
  C  C215  1  0.78290000  0.68890000  0.01200000  1
  C  C216  1  0.73850000  0.64920000  0.01070000  1
  C  C217  1  0.63850000  0.62280000  0.00820000  1
  C  C218  1  0.51350000  0.87830000  0.36000000  1
  C  C219  1  0.51450000  0.83690000  0.31230000  1
  C  C220  1  0.51550000  0.78290000  0.32210000  1
  C  C221  1  0.51470000  0.74150000  0.27690000  1
  C  C222  1  0.51310000  0.81020000  0.21710000  1
  C  C223  1  0.51190000  0.85050000  0.26000000  1
  C  C224  1  0.68520000  0.83550000  0.48910000  1
  C  C225  1  0.67580000  0.78100000  0.48380000  1
  C  C226  1  0.72360000  0.74320000  0.48340000  1
  C  C227  1  0.78290000  0.81110000  0.48800000  1
  C  C228  1  0.73850000  0.85080000  0.48930000  1
  C  C229  1  0.63850000  0.87720000  0.49180000  1
  C  C230  1  0.98650000  0.87830000  0.14000000  1
  C  C231  1  0.98550000  0.83690000  0.18770000  1
  C  C232  1  0.98450000  0.78290000  0.17790000  1
  C  C233  1  0.98530000  0.74150000  0.22310000  1
  C  C234  1  0.81480000  0.83550000  0.01090000  1
  C  C235  1  0.82420000  0.78100000  0.01620000  1
  C  C236  1  0.77640000  0.74320000  0.01660000  1
  C  C237  1  0.86150000  0.87720000  0.00820000  1
  C  C238  1  0.98650000  0.62170000  0.36000000  1
  C  C239  1  0.98550000  0.66310000  0.31230000  1
  C  C240  1  0.98450000  0.71710000  0.32210000  1
  C  C241  1  0.98530000  0.75850000  0.27690000  1
  C  C242  1  0.98690000  0.68980000  0.21710000  1
  C  C243  1  0.98810000  0.64950000  0.26000000  1
  C  C244  1  0.81480000  0.66450000  0.48910000  1
  C  C245  1  0.82420000  0.71900000  0.48380000  1
  C  C246  1  0.77640000  0.75680000  0.48340000  1
  C  C247  1  0.86150000  0.62280000  0.49180000  1
  C  C248  1  0.14000000  0.51350000  0.62170000  1
  C  C249  1  0.18770000  0.51450000  0.66310000  1
  C  C250  1  0.17790000  0.51550000  0.71710000  1
  C  C251  1  0.22310000  0.51470000  0.75850000  1
  C  C252  1  0.01090000  0.68520000  0.66450000  1
  C  C253  1  0.01620000  0.67580000  0.71900000  1
  C  C254  1  0.01660000  0.72360000  0.75680000  1
  C  C255  1  0.01200000  0.78290000  0.68890000  1
  C  C256  1  0.01070000  0.73850000  0.64920000  1
  C  C257  1  0.00820000  0.63850000  0.62280000  1
  C  C258  1  0.36000000  0.51350000  0.87830000  1
  C  C259  1  0.31230000  0.51450000  0.83690000  1
  C  C260  1  0.32210000  0.51550000  0.78290000  1
  C  C261  1  0.27690000  0.51470000  0.74150000  1
  C  C262  1  0.21710000  0.51310000  0.81020000  1
  C  C263  1  0.26000000  0.51190000  0.85050000  1
  C  C264  1  0.48910000  0.68520000  0.83550000  1
  C  C265  1  0.48380000  0.67580000  0.78100000  1
  C  C266  1  0.48340000  0.72360000  0.74320000  1
  C  C267  1  0.49180000  0.63850000  0.87720000  1
  C  C268  1  0.14000000  0.98650000  0.87830000  1
  C  C269  1  0.18770000  0.98550000  0.83690000  1
  C  C270  1  0.17790000  0.98450000  0.78290000  1
  C  C271  1  0.22310000  0.98530000  0.74150000  1
  C  C272  1  0.01090000  0.81480000  0.83550000  1
  C  C273  1  0.01620000  0.82420000  0.78100000  1
  C  C274  1  0.01660000  0.77640000  0.74320000  1
  C  C275  1  0.00820000  0.86150000  0.87720000  1
  C  C276  1  0.36000000  0.98650000  0.62170000  1
  C  C277  1  0.31230000  0.98550000  0.66310000  1
  C  C278  1  0.32210000  0.98450000  0.71710000  1
  C  C279  1  0.27690000  0.98530000  0.75850000  1
  C  C280  1  0.21710000  0.98690000  0.68980000  1
  C  C281  1  0.26000000  0.98810000  0.64950000  1
  C  C282  1  0.48910000  0.81480000  0.66450000  1
  C  C283  1  0.48380000  0.82420000  0.71900000  1
  C  C284  1  0.48340000  0.77640000  0.75680000  1
  C  C285  1  0.48800000  0.71710000  0.68890000  1
  C  C286  1  0.48930000  0.76150000  0.64920000  1
  C  C287  1  0.49180000  0.86150000  0.62280000  1
  C  C288  1  0.37830000  0.86000000  0.48650000  1
  C  C289  1  0.33690000  0.81230000  0.48550000  1
  C  C290  1  0.28290000  0.82210000  0.48450000  1
  C  C291  1  0.24150000  0.77690000  0.48530000  1
  C  C292  1  0.31020000  0.71710000  0.48690000  1
  C  C293  1  0.35050000  0.76000000  0.48810000  1
  C  C294  1  0.33550000  0.98910000  0.31480000  1
  C  C295  1  0.28100000  0.98380000  0.32420000  1
  C  C296  1  0.24320000  0.98340000  0.27640000  1
  C  C297  1  0.37720000  0.99180000  0.36150000  1
  C  C298  1  0.12170000  0.64000000  0.48650000  1
  C  C299  1  0.16310000  0.68770000  0.48550000  1
  C  C300  1  0.21710000  0.67790000  0.48450000  1
  C  C301  1  0.25850000  0.72310000  0.48530000  1
  C  C302  1  0.16450000  0.51090000  0.31480000  1
  C  C303  1  0.21900000  0.51620000  0.32420000  1
  C  C304  1  0.25680000  0.51660000  0.27640000  1
  C  C305  1  0.18890000  0.51200000  0.21710000  1
  C  C306  1  0.14920000  0.51070000  0.26150000  1
  C  C307  1  0.12280000  0.50820000  0.36150000  1
  C  C308  1  0.12170000  0.86000000  0.01350000  1
  C  C309  1  0.16310000  0.81230000  0.01450000  1
  C  C310  1  0.21710000  0.82210000  0.01550000  1
  C  C311  1  0.25850000  0.77690000  0.01470000  1
  C  C312  1  0.18980000  0.71710000  0.01310000  1
  C  C313  1  0.14950000  0.76000000  0.01190000  1
  C  C314  1  0.16450000  0.98910000  0.18520000  1
  C  C315  1  0.21900000  0.98380000  0.17580000  1
  C  C316  1  0.25680000  0.98340000  0.22360000  1
  C  C317  1  0.18890000  0.98800000  0.28290000  1
  C  C318  1  0.14920000  0.98930000  0.23850000  1
  C  C319  1  0.12280000  0.99180000  0.13850000  1
  C  C320  1  0.37830000  0.64000000  0.01350000  1
  C  C321  1  0.33690000  0.68770000  0.01450000  1
  C  C322  1  0.28290000  0.67790000  0.01550000  1
  C  C323  1  0.24150000  0.72310000  0.01470000  1
  C  C324  1  0.33550000  0.51090000  0.18520000  1
  C  C325  1  0.28100000  0.51620000  0.17580000  1
  C  C326  1  0.24320000  0.51660000  0.22360000  1
  C  C327  1  0.37720000  0.50820000  0.13850000  1
  C  C328  1  0.48650000  0.37830000  0.86000000  1
  C  C329  1  0.48550000  0.33690000  0.81230000  1
  C  C330  1  0.48450000  0.28290000  0.82210000  1
  C  C331  1  0.48530000  0.24150000  0.77690000  1
  C  C332  1  0.31480000  0.33550000  0.98910000  1
  C  C333  1  0.32420000  0.28100000  0.98380000  1
  C  C334  1  0.27640000  0.24320000  0.98340000  1
  C  C335  1  0.21710000  0.31110000  0.98800000  1
  C  C336  1  0.26150000  0.35080000  0.98930000  1
  C  C337  1  0.36150000  0.37720000  0.99180000  1
  C  C338  1  0.48650000  0.12170000  0.64000000  1
  C  C339  1  0.48550000  0.16310000  0.68770000  1
  C  C340  1  0.48450000  0.21710000  0.67790000  1
  C  C341  1  0.48530000  0.25850000  0.72310000  1
  C  C342  1  0.48690000  0.18980000  0.78290000  1
  C  C343  1  0.48810000  0.14950000  0.74000000  1
  C  C344  1  0.31480000  0.16450000  0.51090000  1
  C  C345  1  0.32420000  0.21900000  0.51620000  1
  C  C346  1  0.27640000  0.25680000  0.51660000  1
  C  C347  1  0.21710000  0.18890000  0.51200000  1
  C  C348  1  0.26150000  0.14920000  0.51070000  1
  C  C349  1  0.36150000  0.12280000  0.50820000  1
  C  C350  1  0.01350000  0.12170000  0.86000000  1
  C  C351  1  0.01450000  0.16310000  0.81230000  1
  C  C352  1  0.01550000  0.21710000  0.82210000  1
  C  C353  1  0.01470000  0.25850000  0.77690000  1
  C  C354  1  0.18520000  0.16450000  0.98910000  1
  C  C355  1  0.17580000  0.21900000  0.98380000  1
  C  C356  1  0.22360000  0.25680000  0.98340000  1
  C  C357  1  0.13850000  0.12280000  0.99180000  1
  C  C358  1  0.01350000  0.37830000  0.64000000  1
  C  C359  1  0.01450000  0.33690000  0.68770000  1
  C  C360  1  0.01550000  0.28290000  0.67790000  1
  C  C361  1  0.01470000  0.24150000  0.72310000  1
  C  C362  1  0.01310000  0.31020000  0.78290000  1
  C  C363  1  0.01190000  0.35050000  0.74000000  1
  C  C364  1  0.18520000  0.33550000  0.51090000  1
  C  C365  1  0.17580000  0.28100000  0.51620000  1
  C  C366  1  0.22360000  0.24320000  0.51660000  1
  C  C367  1  0.13850000  0.37720000  0.50820000  1
  C  C368  1  0.86000000  0.48650000  0.37830000  1
  C  C369  1  0.81230000  0.48550000  0.33690000  1
  C  C370  1  0.82210000  0.48450000  0.28290000  1
  C  C371  1  0.77690000  0.48530000  0.24150000  1
  C  C372  1  0.71710000  0.48690000  0.31020000  1
  C  C373  1  0.76000000  0.48810000  0.35050000  1
  C  C374  1  0.98910000  0.31480000  0.33550000  1
  C  C375  1  0.98380000  0.32420000  0.28100000  1
  C  C376  1  0.98340000  0.27640000  0.24320000  1
  C  C377  1  0.99180000  0.36150000  0.37720000  1
  C  C378  1  0.64000000  0.48650000  0.12170000  1
  C  C379  1  0.68770000  0.48550000  0.16310000  1
  C  C380  1  0.67790000  0.48450000  0.21710000  1
  C  C381  1  0.72310000  0.48530000  0.25850000  1
  C  C382  1  0.51090000  0.31480000  0.16450000  1
  C  C383  1  0.51620000  0.32420000  0.21900000  1
  C  C384  1  0.51660000  0.27640000  0.25680000  1
  C  C385  1  0.51200000  0.21710000  0.18890000  1
  C  C386  1  0.51070000  0.26150000  0.14920000  1
  C  C387  1  0.50820000  0.36150000  0.12280000  1
  C  C388  1  0.86000000  0.01350000  0.12170000  1
  C  C389  1  0.81230000  0.01450000  0.16310000  1
  C  C390  1  0.82210000  0.01550000  0.21710000  1
  C  C391  1  0.77690000  0.01470000  0.25850000  1
  C  C392  1  0.98910000  0.18520000  0.16450000  1
  C  C393  1  0.98380000  0.17580000  0.21900000  1
  C  C394  1  0.98340000  0.22360000  0.25680000  1
  C  C395  1  0.98800000  0.28290000  0.18890000  1
  C  C396  1  0.98930000  0.23850000  0.14920000  1
  C  C397  1  0.99180000  0.13850000  0.12280000  1
  C  C398  1  0.64000000  0.01350000  0.37830000  1
  C  C399  1  0.68770000  0.01450000  0.33690000  1
  C  C400  1  0.67790000  0.01550000  0.28290000  1
  C  C401  1  0.72310000  0.01470000  0.24150000  1
  C  C402  1  0.78290000  0.01310000  0.31020000  1
  C  C403  1  0.74000000  0.01190000  0.35050000  1
  C  C404  1  0.51090000  0.18520000  0.33550000  1
  C  C405  1  0.51620000  0.17580000  0.28100000  1
  C  C406  1  0.51660000  0.22360000  0.24320000  1
  C  C407  1  0.50820000  0.13850000  0.37720000  1
  O  O408  1  0.64368000  0.08960000  0.51349000  1
  O  O409  1  0.57010000  0.15460000  0.51378000  1
  O  O410  1  0.64280000  0.01100000  0.59090000  1
  O  O411  1  0.57110000  0.00540000  0.65390000  1
  O  O412  1  0.55141000  0.05850000  0.56490000  1
  O  O413  1  0.85632000  0.41040000  0.51349000  1
  O  O414  1  0.92990000  0.34540000  0.51378000  1
  O  O415  1  0.85720000  0.48900000  0.59090000  1
  O  O416  1  0.92890000  0.49460000  0.65390000  1
  O  O417  1  0.94859000  0.44150000  0.56490000  1
  O  O418  1  0.85632000  0.08960000  0.98651000  1
  O  O419  1  0.92990000  0.15460000  0.98622000  1
  O  O420  1  0.85720000  0.01100000  0.90910000  1
  O  O421  1  0.92890000  0.00540000  0.84610000  1
  O  O422  1  0.94859000  0.05850000  0.93510000  1
  O  O423  1  0.64368000  0.41040000  0.98651000  1
  O  O424  1  0.57010000  0.34540000  0.98622000  1
  O  O425  1  0.64280000  0.48900000  0.90910000  1
  O  O426  1  0.57110000  0.49460000  0.84610000  1
  O  O427  1  0.55141000  0.44150000  0.93510000  1
  O  O428  1  0.51349000  0.64368000  0.08960000  1
  O  O429  1  0.51378000  0.57010000  0.15460000  1
  O  O430  1  0.59090000  0.64280000  0.01100000  1
  O  O431  1  0.65390000  0.57110000  0.00540000  1
  O  O432  1  0.56490000  0.55141000  0.05850000  1
  O  O433  1  0.51349000  0.85632000  0.41040000  1
  O  O434  1  0.51378000  0.92990000  0.34540000  1
  O  O435  1  0.59090000  0.85720000  0.48900000  1
  O  O436  1  0.65390000  0.92890000  0.49460000  1
  O  O437  1  0.56490000  0.94859000  0.44150000  1
  O  O438  1  0.98651000  0.85632000  0.08960000  1
  O  O439  1  0.98622000  0.92990000  0.15460000  1
  O  O440  1  0.90910000  0.85720000  0.01100000  1
  O  O441  1  0.84610000  0.92890000  0.00540000  1
  O  O442  1  0.93510000  0.94859000  0.05850000  1
  O  O443  1  0.98651000  0.64368000  0.41040000  1
  O  O444  1  0.98622000  0.57010000  0.34540000  1
  O  O445  1  0.90910000  0.64280000  0.48900000  1
  O  O446  1  0.84610000  0.57110000  0.49460000  1
  O  O447  1  0.93510000  0.55141000  0.44150000  1
  O  O448  1  0.08960000  0.51349000  0.64368000  1
  O  O449  1  0.15460000  0.51378000  0.57010000  1
  O  O450  1  0.01100000  0.59090000  0.64280000  1
  O  O451  1  0.00540000  0.65390000  0.57110000  1
  O  O452  1  0.05850000  0.56490000  0.55141000  1
  O  O453  1  0.41040000  0.51349000  0.85632000  1
  O  O454  1  0.34540000  0.51378000  0.92990000  1
  O  O455  1  0.48900000  0.59090000  0.85720000  1
  O  O456  1  0.49460000  0.65390000  0.92890000  1
  O  O457  1  0.44150000  0.56490000  0.94859000  1
  O  O458  1  0.08960000  0.98651000  0.85632000  1
  O  O459  1  0.15460000  0.98622000  0.92990000  1
  O  O460  1  0.01100000  0.90910000  0.85720000  1
  O  O461  1  0.00540000  0.84610000  0.92890000  1
  O  O462  1  0.05850000  0.93510000  0.94859000  1
  O  O463  1  0.41040000  0.98651000  0.64368000  1
  O  O464  1  0.34540000  0.98622000  0.57010000  1
  O  O465  1  0.48900000  0.90910000  0.64280000  1
  O  O466  1  0.49460000  0.84610000  0.57110000  1
  O  O467  1  0.44150000  0.93510000  0.55141000  1
  O  O468  1  0.35632000  0.91040000  0.48651000  1
  O  O469  1  0.42990000  0.84540000  0.48622000  1
  O  O470  1  0.35720000  0.98900000  0.40910000  1
  O  O471  1  0.42890000  0.99460000  0.34610000  1
  O  O472  1  0.44859000  0.94150000  0.43510000  1
  O  O473  1  0.14368000  0.58960000  0.48651000  1
  O  O474  1  0.07010000  0.65460000  0.48622000  1
  O  O475  1  0.14280000  0.51100000  0.40910000  1
  O  O476  1  0.07110000  0.50540000  0.34610000  1
  O  O477  1  0.05141000  0.55850000  0.43510000  1
  O  O478  1  0.14368000  0.91040000  0.01349000  1
  O  O479  1  0.07010000  0.84540000  0.01378000  1
  O  O480  1  0.14280000  0.98900000  0.09090000  1
  O  O481  1  0.07110000  0.99460000  0.15390000  1
  O  O482  1  0.05141000  0.94150000  0.06490000  1
  O  O483  1  0.35632000  0.58960000  0.01349000  1
  O  O484  1  0.42990000  0.65460000  0.01378000  1
  O  O485  1  0.35720000  0.51100000  0.09090000  1
  O  O486  1  0.42890000  0.50540000  0.15390000  1
  O  O487  1  0.44859000  0.55850000  0.06490000  1
  O  O488  1  0.48651000  0.35632000  0.91040000  1
  O  O489  1  0.48622000  0.42990000  0.84540000  1
  O  O490  1  0.40910000  0.35720000  0.98900000  1
  O  O491  1  0.34610000  0.42890000  0.99460000  1
  O  O492  1  0.43510000  0.44859000  0.94150000  1
  O  O493  1  0.48651000  0.14368000  0.58960000  1
  O  O494  1  0.48622000  0.07010000  0.65460000  1
  O  O495  1  0.40910000  0.14280000  0.51100000  1
  O  O496  1  0.34610000  0.07110000  0.50540000  1
  O  O497  1  0.43510000  0.05141000  0.55850000  1
  O  O498  1  0.01349000  0.14368000  0.91040000  1
  O  O499  1  0.01378000  0.07010000  0.84540000  1
  O  O500  1  0.09090000  0.14280000  0.98900000  1
  O  O501  1  0.15390000  0.07110000  0.99460000  1
  O  O502  1  0.06490000  0.05141000  0.94150000  1
  O  O503  1  0.01349000  0.35632000  0.58960000  1
  O  O504  1  0.01378000  0.42990000  0.65460000  1
  O  O505  1  0.09090000  0.35720000  0.51100000  1
  O  O506  1  0.15390000  0.42890000  0.50540000  1
  O  O507  1  0.06490000  0.44859000  0.55850000  1
  O  O508  1  0.91040000  0.48651000  0.35632000  1
  O  O509  1  0.84540000  0.48622000  0.42990000  1
  O  O510  1  0.98900000  0.40910000  0.35720000  1
  O  O511  1  0.99460000  0.34610000  0.42890000  1
  O  O512  1  0.94150000  0.43510000  0.44859000  1
  O  O513  1  0.58960000  0.48651000  0.14368000  1
  O  O514  1  0.65460000  0.48622000  0.07010000  1
  O  O515  1  0.51100000  0.40910000  0.14280000  1
  O  O516  1  0.50540000  0.34610000  0.07110000  1
  O  O517  1  0.55850000  0.43510000  0.05141000  1
  O  O518  1  0.91040000  0.01349000  0.14368000  1
  O  O519  1  0.84540000  0.01378000  0.07010000  1
  O  O520  1  0.98900000  0.09090000  0.14280000  1
  O  O521  1  0.99460000  0.15390000  0.07110000  1
  O  O522  1  0.94150000  0.06490000  0.05141000  1
  O  O523  1  0.58960000  0.01349000  0.35632000  1
  O  O524  1  0.65460000  0.01378000  0.42990000  1
  O  O525  1  0.51100000  0.09090000  0.35720000  1
  O  O526  1  0.50540000  0.15390000  0.42890000  1
  O  O527  1  0.55850000  0.06490000  0.44859000  1
  O  O528  1  0.55900000  0.94100000  0.55900000  1
  O  O529  1  0.94100000  0.55900000  0.55900000  1
  O  O530  1  0.94100000  0.94100000  0.94100000  1
  O  O531  1  0.55900000  0.55900000  0.94100000  1
  O  O532  1  0.44100000  0.05900000  0.44100000  1
  O  O533  1  0.05900000  0.44100000  0.44100000  1
  O  O534  1  0.05900000  0.05900000  0.05900000  1
  O  O535  1  0.44100000  0.44100000  0.05900000  1
