# generated using pymatgen
data_Zr3H8C12(SO8)2
_symmetry_space_group_name_H-M   'P 1'
_cell_length_a   27.66201728
_cell_length_b   27.66201728
_cell_length_c   27.66201728
_cell_angle_alpha   60.00000000
_cell_angle_beta   60.00000000
_cell_angle_gamma   60.00000000
_symmetry_Int_Tables_number   1
_chemical_formula_structural   Zr3H8C12(SO8)2
_chemical_formula_sum   'Zr36 H96 C144 S24 O192'
_cell_volume   14967.06163200
_cell_formula_units_Z   12
loop_
 _symmetry_equiv_pos_site_id
 _symmetry_equiv_pos_as_xyz
  1  'x, y, z'
loop_
 _atom_site_type_symbol
 _atom_site_label
 _atom_site_symmetry_multiplicity
 _atom_site_fract_x
 _atom_site_fract_y
 _atom_site_fract_z
 _atom_site_occupancy
  C  C0  1  0.67375000  0.86559000  0.02021000  1.0
  C  C1  1  0.73358000  0.82230000  0.02010000  1.0
  C  C2  1  0.78119000  0.83161000  0.01259000  1.0
  C  C3  1  0.44045000  0.02021000  0.86559000  1.0
  C  C4  1  0.42402000  0.02010000  0.82230000  1.0
  C  C5  1  0.37461000  0.01259000  0.83161000  1.0
  C  C6  1  0.02021000  0.44045000  0.67375000  1.0
  C  C7  1  0.02010000  0.42402000  0.73358000  1.0
  C  C8  1  0.01259000  0.37461000  0.78119000  1.0
  C  C9  1  0.86559000  0.67375000  0.44045000  1.0
  C  C10  1  0.82230000  0.73358000  0.42402000  1.0
  C  C11  1  0.83161000  0.78119000  0.37461000  1.0
  C  C12  1  0.86559000  0.02021000  0.67375000  1.0
  C  C13  1  0.82230000  0.02010000  0.73358000  1.0
  C  C14  1  0.83161000  0.01259000  0.78119000  1.0
  C  C15  1  0.02021000  0.86559000  0.44045000  1.0
  C  C16  1  0.02010000  0.82230000  0.42402000  1.0
  C  C17  1  0.01259000  0.83161000  0.37461000  1.0
  C  C18  1  0.44045000  0.67375000  0.02021000  1.0
  C  C19  1  0.42402000  0.73358000  0.02010000  1.0
  C  C20  1  0.37461000  0.78119000  0.01259000  1.0
  C  C21  1  0.67375000  0.44045000  0.86559000  1.0
  C  C22  1  0.73358000  0.42402000  0.82230000  1.0
  C  C23  1  0.78119000  0.37461000  0.83161000  1.0
  C  C24  1  0.02021000  0.67375000  0.86559000  1.0
  C  C25  1  0.02010000  0.73358000  0.82230000  1.0
  C  C26  1  0.01259000  0.78119000  0.83161000  1.0
  C  C27  1  0.86559000  0.44045000  0.02021000  1.0
  C  C28  1  0.82230000  0.42402000  0.02010000  1.0
  C  C29  1  0.83161000  0.37461000  0.01259000  1.0
  C  C30  1  0.67375000  0.02021000  0.44045000  1.0
  C  C31  1  0.73358000  0.02010000  0.42402000  1.0
  C  C32  1  0.78119000  0.01259000  0.37461000  1.0
  C  C33  1  0.44045000  0.86559000  0.67375000  1.0
  C  C34  1  0.42402000  0.82230000  0.73358000  1.0
  C  C35  1  0.37461000  0.83161000  0.78119000  1.0
  C  C36  1  0.55955000  0.13441000  0.97979000  1.0
  C  C37  1  0.57598000  0.17770000  0.97990000  1.0
  C  C38  1  0.62539000  0.16839000  0.98741000  1.0
  C  C39  1  0.32625000  0.97979000  0.13441000  1.0
  C  C40  1  0.26642000  0.97990000  0.17770000  1.0
  C  C41  1  0.21881000  0.98741000  0.16839000  1.0
  C  C42  1  0.13441000  0.55955000  0.32625000  1.0
  C  C43  1  0.17770000  0.57598000  0.26642000  1.0
  C  C44  1  0.16839000  0.62539000  0.21881000  1.0
  C  C45  1  0.97979000  0.32625000  0.55955000  1.0
  C  C46  1  0.97990000  0.26642000  0.57598000  1.0
  C  C47  1  0.98741000  0.21881000  0.62539000  1.0
  C  C48  1  0.55955000  0.97979000  0.32625000  1.0
  C  C49  1  0.57598000  0.97990000  0.26642000  1.0
  C  C50  1  0.62539000  0.98741000  0.21881000  1.0
  C  C51  1  0.32625000  0.13441000  0.55955000  1.0
  C  C52  1  0.26642000  0.17770000  0.57598000  1.0
  C  C53  1  0.21881000  0.16839000  0.62539000  1.0
  C  C54  1  0.13441000  0.32625000  0.97979000  1.0
  C  C55  1  0.17770000  0.26642000  0.97990000  1.0
  C  C56  1  0.16839000  0.21881000  0.98741000  1.0
  C  C57  1  0.97979000  0.55955000  0.13441000  1.0
  C  C58  1  0.97990000  0.57598000  0.17770000  1.0
  C  C59  1  0.98741000  0.62539000  0.16839000  1.0
  C  C60  1  0.55955000  0.32625000  0.13441000  1.0
  C  C61  1  0.57598000  0.26642000  0.17770000  1.0
  C  C62  1  0.62539000  0.21881000  0.16839000  1.0
  C  C63  1  0.32625000  0.55955000  0.97979000  1.0
  C  C64  1  0.26642000  0.57598000  0.97990000  1.0
  C  C65  1  0.21881000  0.62539000  0.98741000  1.0
  C  C66  1  0.13441000  0.97979000  0.55955000  1.0
  C  C67  1  0.17770000  0.97990000  0.57598000  1.0
  C  C68  1  0.16839000  0.98741000  0.62539000  1.0
  C  C69  1  0.97979000  0.13441000  0.32625000  1.0
  C  C70  1  0.97990000  0.17770000  0.26642000  1.0
  C  C71  1  0.98741000  0.16839000  0.21881000  1.0
  C  C72  1  0.32625000  0.13441000  0.97979000  1.0
  C  C73  1  0.26642000  0.17770000  0.97990000  1.0
  C  C74  1  0.21881000  0.16839000  0.98741000  1.0
  C  C75  1  0.55955000  0.97979000  0.13441000  1.0
  C  C76  1  0.57598000  0.97990000  0.17770000  1.0
  C  C77  1  0.62539000  0.98741000  0.16839000  1.0
  C  C78  1  0.97979000  0.55955000  0.32625000  1.0
  C  C79  1  0.97990000  0.57598000  0.26642000  1.0
  C  C80  1  0.98741000  0.62539000  0.21881000  1.0
  C  C81  1  0.13441000  0.32625000  0.55955000  1.0
  C  C82  1  0.17770000  0.26642000  0.57598000  1.0
  C  C83  1  0.16839000  0.21881000  0.62539000  1.0
  C  C84  1  0.13441000  0.97979000  0.32625000  1.0
  C  C85  1  0.17770000  0.97990000  0.26642000  1.0
  C  C86  1  0.16839000  0.98741000  0.21881000  1.0
  C  C87  1  0.97979000  0.13441000  0.55955000  1.0
  C  C88  1  0.97990000  0.17770000  0.57598000  1.0
  C  C89  1  0.98741000  0.16839000  0.62539000  1.0
  C  C90  1  0.55955000  0.32625000  0.97979000  1.0
  C  C91  1  0.57598000  0.26642000  0.97990000  1.0
  C  C92  1  0.62539000  0.21881000  0.98741000  1.0
  C  C93  1  0.32625000  0.55955000  0.13441000  1.0
  C  C94  1  0.26642000  0.57598000  0.17770000  1.0
  C  C95  1  0.21881000  0.62539000  0.16839000  1.0
  C  C96  1  0.97979000  0.32625000  0.13441000  1.0
  C  C97  1  0.97990000  0.26642000  0.17770000  1.0
  C  C98  1  0.98741000  0.21881000  0.16839000  1.0
  C  C99  1  0.13441000  0.55955000  0.97979000  1.0
  C  C100  1  0.17770000  0.57598000  0.97990000  1.0
  C  C101  1  0.16839000  0.62539000  0.98741000  1.0
  C  C102  1  0.32625000  0.97979000  0.55955000  1.0
  C  C103  1  0.26642000  0.97990000  0.57598000  1.0
  C  C104  1  0.21881000  0.98741000  0.62539000  1.0
  C  C105  1  0.55955000  0.13441000  0.32625000  1.0
  C  C106  1  0.57598000  0.17770000  0.26642000  1.0
  C  C107  1  0.62539000  0.16839000  0.21881000  1.0
  C  C108  1  0.44045000  0.86559000  0.02021000  1.0
  C  C109  1  0.42402000  0.82230000  0.02010000  1.0
  C  C110  1  0.37461000  0.83161000  0.01259000  1.0
  C  C111  1  0.67375000  0.02021000  0.86559000  1.0
  C  C112  1  0.73358000  0.02010000  0.82230000  1.0
  C  C113  1  0.78119000  0.01259000  0.83161000  1.0
  C  C114  1  0.86559000  0.44045000  0.67375000  1.0
  C  C115  1  0.82230000  0.42402000  0.73358000  1.0
  C  C116  1  0.83161000  0.37461000  0.78119000  1.0
  C  C117  1  0.02021000  0.67375000  0.44045000  1.0
  C  C118  1  0.02010000  0.73358000  0.42402000  1.0
  C  C119  1  0.01259000  0.78119000  0.37461000  1.0
  C  C120  1  0.44045000  0.02021000  0.67375000  1.0
  C  C121  1  0.42402000  0.02010000  0.73358000  1.0
  C  C122  1  0.37461000  0.01259000  0.78119000  1.0
  C  C123  1  0.67375000  0.86559000  0.44045000  1.0
  C  C124  1  0.73358000  0.82230000  0.42402000  1.0
  C  C125  1  0.78119000  0.83161000  0.37461000  1.0
  C  C126  1  0.86559000  0.67375000  0.02021000  1.0
  C  C127  1  0.82230000  0.73358000  0.02010000  1.0
  C  C128  1  0.83161000  0.78119000  0.01259000  1.0
  C  C129  1  0.02021000  0.44045000  0.86559000  1.0
  C  C130  1  0.02010000  0.42402000  0.82230000  1.0
  C  C131  1  0.01259000  0.37461000  0.83161000  1.0
  C  C132  1  0.44045000  0.67375000  0.86559000  1.0
  C  C133  1  0.42402000  0.73358000  0.82230000  1.0
  C  C134  1  0.37461000  0.78119000  0.83161000  1.0
  C  C135  1  0.67375000  0.44045000  0.02021000  1.0
  C  C136  1  0.73358000  0.42402000  0.02010000  1.0
  C  C137  1  0.78119000  0.37461000  0.01259000  1.0
  C  C138  1  0.86559000  0.02021000  0.44045000  1.0
  C  C139  1  0.82230000  0.02010000  0.42402000  1.0
  C  C140  1  0.83161000  0.01259000  0.37461000  1.0
  C  C141  1  0.02021000  0.86559000  0.67375000  1.0
  C  C142  1  0.02010000  0.82230000  0.73358000  1.0
  C  C143  1  0.01259000  0.83161000  0.78119000  1.0
  H  H144  1  0.77693000  0.87709000  0.00715000  1.0
  H  H145  1  0.33883000  0.00715000  0.87709000  1.0
  H  H146  1  0.00715000  0.33883000  0.77693000  1.0
  H  H147  1  0.87709000  0.77693000  0.33883000  1.0
  H  H148  1  0.87709000  0.00715000  0.77693000  1.0
  H  H149  1  0.00715000  0.87709000  0.33883000  1.0
  H  H150  1  0.33883000  0.77693000  0.00715000  1.0
  H  H151  1  0.77693000  0.33883000  0.87709000  1.0
  H  H152  1  0.00715000  0.77693000  0.87709000  1.0
  H  H153  1  0.87709000  0.33883000  0.00715000  1.0
  H  H154  1  0.77693000  0.00715000  0.33883000  1.0
  H  H155  1  0.33883000  0.87709000  0.77693000  1.0
  H  H156  1  0.66117000  0.12291000  0.99285000  1.0
  H  H157  1  0.22307000  0.99285000  0.12291000  1.0
  H  H158  1  0.12291000  0.66117000  0.22307000  1.0
  H  H159  1  0.99285000  0.22307000  0.66117000  1.0
  H  H160  1  0.66117000  0.99285000  0.22307000  1.0
  H  H161  1  0.22307000  0.12291000  0.66117000  1.0
  H  H162  1  0.12291000  0.22307000  0.99285000  1.0
  H  H163  1  0.99285000  0.66117000  0.12291000  1.0
  H  H164  1  0.66117000  0.22307000  0.12291000  1.0
  H  H165  1  0.22307000  0.66117000  0.99285000  1.0
  H  H166  1  0.12291000  0.99285000  0.66117000  1.0
  H  H167  1  0.99285000  0.12291000  0.22307000  1.0
  H  H168  1  0.21702000  0.12540000  0.99332000  1.0
  H  H169  1  0.66426000  0.99332000  0.12540000  1.0
  H  H170  1  0.99332000  0.66426000  0.21702000  1.0
  H  H171  1  0.12540000  0.21702000  0.66426000  1.0
  H  H172  1  0.12540000  0.99332000  0.21702000  1.0
  H  H173  1  0.99332000  0.12540000  0.66426000  1.0
  H  H174  1  0.66426000  0.21702000  0.99332000  1.0
  H  H175  1  0.21702000  0.66426000  0.12540000  1.0
  H  H176  1  0.99332000  0.21702000  0.12540000  1.0
  H  H177  1  0.12540000  0.66426000  0.99332000  1.0
  H  H178  1  0.21702000  0.99332000  0.66426000  1.0
  H  H179  1  0.66426000  0.12540000  0.21702000  1.0
  H  H180  1  0.33574000  0.87460000  0.00668000  1.0
  H  H181  1  0.78298000  0.00668000  0.87460000  1.0
  H  H182  1  0.87460000  0.33574000  0.78298000  1.0
  H  H183  1  0.00668000  0.78298000  0.33574000  1.0
  H  H184  1  0.33574000  0.00668000  0.78298000  1.0
  H  H185  1  0.78298000  0.87460000  0.33574000  1.0
  H  H186  1  0.87460000  0.78298000  0.00668000  1.0
  H  H187  1  0.00668000  0.33574000  0.87460000  1.0
  H  H188  1  0.33574000  0.78298000  0.87460000  1.0
  H  H189  1  0.78298000  0.33574000  0.00668000  1.0
  H  H190  1  0.87460000  0.00668000  0.33574000  1.0
  H  H191  1  0.00668000  0.87460000  0.78298000  1.0
  H  H192  1  0.57233000  0.92593000  0.87267000  1.0
  H  H193  1  0.51503000  0.07017000  0.84303000  1.0
  H  H194  1  0.57233000  0.81593000  0.98267000  1.0
  H  H195  1  0.51503000  0.78629000  0.12691000  1.0
  H  H196  1  0.81593000  0.57233000  0.62907000  1.0
  H  H197  1  0.78629000  0.51503000  0.57177000  1.0
  H  H198  1  0.92593000  0.57233000  0.62907000  1.0
  H  H199  1  0.07017000  0.51503000  0.57177000  1.0
  H  H200  1  0.92593000  0.81593000  0.62907000  1.0
  H  H201  1  0.07017000  0.78629000  0.57177000  1.0
  H  H202  1  0.81593000  0.92593000  0.62907000  1.0
  H  H203  1  0.78629000  0.07017000  0.57177000  1.0
  H  H204  1  0.57233000  0.57233000  0.87267000  1.0
  H  H205  1  0.51503000  0.51503000  0.84303000  1.0
  H  H206  1  0.57233000  0.57233000  0.98267000  1.0
  H  H207  1  0.51503000  0.51503000  0.12691000  1.0
  H  H208  1  0.81593000  0.57233000  0.98267000  1.0
  H  H209  1  0.78629000  0.51503000  0.12691000  1.0
  H  H210  1  0.92593000  0.57233000  0.87267000  1.0
  H  H211  1  0.07017000  0.51503000  0.84303000  1.0
  H  H212  1  0.57233000  0.81593000  0.62907000  1.0
  H  H213  1  0.51503000  0.78629000  0.57177000  1.0
  H  H214  1  0.57233000  0.92593000  0.62907000  1.0
  H  H215  1  0.51503000  0.07017000  0.57177000  1.0
  H  H216  1  0.37093000  0.01733000  0.18407000  1.0
  H  H217  1  0.42823000  0.87309000  0.21371000  1.0
  H  H218  1  0.37093000  0.12733000  0.07407000  1.0
  H  H219  1  0.42823000  0.15697000  0.92983000  1.0
  H  H220  1  0.01733000  0.37093000  0.42767000  1.0
  H  H221  1  0.87309000  0.42823000  0.48497000  1.0
  H  H222  1  0.12733000  0.37093000  0.42767000  1.0
  H  H223  1  0.15697000  0.42823000  0.48497000  1.0
  H  H224  1  0.37093000  0.12733000  0.42767000  1.0
  H  H225  1  0.42823000  0.15697000  0.48497000  1.0
  H  H226  1  0.37093000  0.01733000  0.42767000  1.0
  H  H227  1  0.42823000  0.87309000  0.48497000  1.0
  H  H228  1  0.01733000  0.37093000  0.18407000  1.0
  H  H229  1  0.87309000  0.42823000  0.21371000  1.0
  H  H230  1  0.12733000  0.37093000  0.07407000  1.0
  H  H231  1  0.15697000  0.42823000  0.92983000  1.0
  H  H232  1  0.37093000  0.37093000  0.07407000  1.0
  H  H233  1  0.42823000  0.42823000  0.92983000  1.0
  H  H234  1  0.37093000  0.37093000  0.18407000  1.0
  H  H235  1  0.42823000  0.42823000  0.21371000  1.0
  H  H236  1  0.01733000  0.12733000  0.42767000  1.0
  H  H237  1  0.87309000  0.15697000  0.48497000  1.0
  H  H238  1  0.12733000  0.01733000  0.42767000  1.0
  H  H239  1  0.15697000  0.87309000  0.48497000  1.0
  O  O240  1  0.66471000  0.91729000  0.01427000  1.0
  O  O241  1  0.63782000  0.84722000  0.02466000  1.0
  O  O242  1  0.40373000  0.01427000  0.91729000  1.0
  O  O243  1  0.49030000  0.02466000  0.84722000  1.0
  O  O244  1  0.01427000  0.40373000  0.66471000  1.0
  O  O245  1  0.02466000  0.49030000  0.63782000  1.0
  O  O246  1  0.91729000  0.66471000  0.40373000  1.0
  O  O247  1  0.84722000  0.63782000  0.49030000  1.0
  O  O248  1  0.91729000  0.01427000  0.66471000  1.0
  O  O249  1  0.84722000  0.02466000  0.63782000  1.0
  O  O250  1  0.01427000  0.91729000  0.40373000  1.0
  O  O251  1  0.02466000  0.84722000  0.49030000  1.0
  O  O252  1  0.40373000  0.66471000  0.01427000  1.0
  O  O253  1  0.49030000  0.63782000  0.02466000  1.0
  O  O254  1  0.66471000  0.40373000  0.91729000  1.0
  O  O255  1  0.63782000  0.49030000  0.84722000  1.0
  O  O256  1  0.01427000  0.66471000  0.91729000  1.0
  O  O257  1  0.02466000  0.63782000  0.84722000  1.0
  O  O258  1  0.91729000  0.40373000  0.01427000  1.0
  O  O259  1  0.84722000  0.49030000  0.02466000  1.0
  O  O260  1  0.66471000  0.01427000  0.40373000  1.0
  O  O261  1  0.63782000  0.02466000  0.49030000  1.0
  O  O262  1  0.40373000  0.91729000  0.66471000  1.0
  O  O263  1  0.49030000  0.84722000  0.63782000  1.0
  O  O264  1  0.59627000  0.08271000  0.98573000  1.0
  O  O265  1  0.50970000  0.15278000  0.97534000  1.0
  O  O266  1  0.33529000  0.98573000  0.08271000  1.0
  O  O267  1  0.36218000  0.97534000  0.15278000  1.0
  O  O268  1  0.08271000  0.59627000  0.33529000  1.0
  O  O269  1  0.15278000  0.50970000  0.36218000  1.0
  O  O270  1  0.98573000  0.33529000  0.59627000  1.0
  O  O271  1  0.97534000  0.36218000  0.50970000  1.0
  O  O272  1  0.59627000  0.98573000  0.33529000  1.0
  O  O273  1  0.50970000  0.97534000  0.36218000  1.0
  O  O274  1  0.33529000  0.08271000  0.59627000  1.0
  O  O275  1  0.36218000  0.15278000  0.50970000  1.0
  O  O276  1  0.08271000  0.33529000  0.98573000  1.0
  O  O277  1  0.15278000  0.36218000  0.97534000  1.0
  O  O278  1  0.98573000  0.59627000  0.08271000  1.0
  O  O279  1  0.97534000  0.50970000  0.15278000  1.0
  O  O280  1  0.59627000  0.33529000  0.08271000  1.0
  O  O281  1  0.50970000  0.36218000  0.15278000  1.0
  O  O282  1  0.33529000  0.59627000  0.98573000  1.0
  O  O283  1  0.36218000  0.50970000  0.97534000  1.0
  O  O284  1  0.08271000  0.98573000  0.59627000  1.0
  O  O285  1  0.15278000  0.97534000  0.50970000  1.0
  O  O286  1  0.98573000  0.08271000  0.33529000  1.0
  O  O287  1  0.97534000  0.15278000  0.36218000  1.0
  O  O288  1  0.33529000  0.08271000  0.98573000  1.0
  O  O289  1  0.36218000  0.15278000  0.97534000  1.0
  O  O290  1  0.59627000  0.98573000  0.08271000  1.0
  O  O291  1  0.50970000  0.97534000  0.15278000  1.0
  O  O292  1  0.98573000  0.59627000  0.33529000  1.0
  O  O293  1  0.97534000  0.50970000  0.36218000  1.0
  O  O294  1  0.08271000  0.33529000  0.59627000  1.0
  O  O295  1  0.15278000  0.36218000  0.50970000  1.0
  O  O296  1  0.08271000  0.98573000  0.33529000  1.0
  O  O297  1  0.15278000  0.97534000  0.36218000  1.0
  O  O298  1  0.98573000  0.08271000  0.59627000  1.0
  O  O299  1  0.97534000  0.15278000  0.50970000  1.0
  O  O300  1  0.59627000  0.33529000  0.98573000  1.0
  O  O301  1  0.50970000  0.36218000  0.97534000  1.0
  O  O302  1  0.33529000  0.59627000  0.08271000  1.0
  O  O303  1  0.36218000  0.50970000  0.15278000  1.0
  O  O304  1  0.98573000  0.33529000  0.08271000  1.0
  O  O305  1  0.97534000  0.36218000  0.15278000  1.0
  O  O306  1  0.08271000  0.59627000  0.98573000  1.0
  O  O307  1  0.15278000  0.50970000  0.97534000  1.0
  O  O308  1  0.33529000  0.98573000  0.59627000  1.0
  O  O309  1  0.36218000  0.97534000  0.50970000  1.0
  O  O310  1  0.59627000  0.08271000  0.33529000  1.0
  O  O311  1  0.50970000  0.15278000  0.36218000  1.0
  O  O312  1  0.40373000  0.91729000  0.01427000  1.0
  O  O313  1  0.49030000  0.84722000  0.02466000  1.0
  O  O314  1  0.66471000  0.01427000  0.91729000  1.0
  O  O315  1  0.63782000  0.02466000  0.84722000  1.0
  O  O316  1  0.91729000  0.40373000  0.66471000  1.0
  O  O317  1  0.84722000  0.49030000  0.63782000  1.0
  O  O318  1  0.01427000  0.66471000  0.40373000  1.0
  O  O319  1  0.02466000  0.63782000  0.49030000  1.0
  O  O320  1  0.40373000  0.01427000  0.66471000  1.0
  O  O321  1  0.49030000  0.02466000  0.63782000  1.0
  O  O322  1  0.66471000  0.91729000  0.40373000  1.0
  O  O323  1  0.63782000  0.84722000  0.49030000  1.0
  O  O324  1  0.91729000  0.66471000  0.01427000  1.0
  O  O325  1  0.84722000  0.63782000  0.02466000  1.0
  O  O326  1  0.01427000  0.40373000  0.91729000  1.0
  O  O327  1  0.02466000  0.49030000  0.84722000  1.0
  O  O328  1  0.40373000  0.66471000  0.91729000  1.0
  O  O329  1  0.49030000  0.63782000  0.84722000  1.0
  O  O330  1  0.66471000  0.40373000  0.01427000  1.0
  O  O331  1  0.63782000  0.49030000  0.02466000  1.0
  O  O332  1  0.91729000  0.01427000  0.40373000  1.0
  O  O333  1  0.84722000  0.02466000  0.49030000  1.0
  O  O334  1  0.01427000  0.91729000  0.66471000  1.0
  O  O335  1  0.02466000  0.84722000  0.63782000  1.0
  O  O336  1  0.60070000  0.95430000  0.84430000  1.0
  O  O337  1  0.54340000  0.09854000  0.81466000  1.0
  O  O338  1  0.60070000  0.84430000  0.95430000  1.0
  O  O339  1  0.54340000  0.81466000  0.09854000  1.0
  O  O340  1  0.84430000  0.60070000  0.60070000  1.0
  O  O341  1  0.81466000  0.54340000  0.54340000  1.0
  O  O342  1  0.95430000  0.60070000  0.60070000  1.0
  O  O343  1  0.09854000  0.54340000  0.54340000  1.0
  O  O344  1  0.95430000  0.84430000  0.60070000  1.0
  O  O345  1  0.09854000  0.81466000  0.54340000  1.0
  O  O346  1  0.84430000  0.95430000  0.60070000  1.0
  O  O347  1  0.81466000  0.09854000  0.54340000  1.0
  O  O348  1  0.60070000  0.60070000  0.84430000  1.0
  O  O349  1  0.54340000  0.54340000  0.81466000  1.0
  O  O350  1  0.60070000  0.60070000  0.95430000  1.0
  O  O351  1  0.54340000  0.54340000  0.09854000  1.0
  O  O352  1  0.84430000  0.60070000  0.95430000  1.0
  O  O353  1  0.81466000  0.54340000  0.09854000  1.0
  O  O354  1  0.95430000  0.60070000  0.84430000  1.0
  O  O355  1  0.09854000  0.54340000  0.81466000  1.0
  O  O356  1  0.60070000  0.84430000  0.60070000  1.0
  O  O357  1  0.54340000  0.81466000  0.54340000  1.0
  O  O358  1  0.60070000  0.95430000  0.60070000  1.0
  O  O359  1  0.54340000  0.09854000  0.54340000  1.0
  O  O360  1  0.39930000  0.04570000  0.15570000  1.0
  O  O361  1  0.45660000  0.90146000  0.18534000  1.0
  O  O362  1  0.39930000  0.15570000  0.04570000  1.0
  O  O363  1  0.45660000  0.18534000  0.90146000  1.0
  O  O364  1  0.04570000  0.39930000  0.39930000  1.0
  O  O365  1  0.90146000  0.45660000  0.45660000  1.0
  O  O366  1  0.15570000  0.39930000  0.39930000  1.0
  O  O367  1  0.18534000  0.45660000  0.45660000  1.0
  O  O368  1  0.39930000  0.15570000  0.39930000  1.0
  O  O369  1  0.45660000  0.18534000  0.45660000  1.0
  O  O370  1  0.39930000  0.04570000  0.39930000  1.0
  O  O371  1  0.45660000  0.90146000  0.45660000  1.0
  O  O372  1  0.04570000  0.39930000  0.15570000  1.0
  O  O373  1  0.90146000  0.45660000  0.18534000  1.0
  O  O374  1  0.15570000  0.39930000  0.04570000  1.0
  O  O375  1  0.18534000  0.45660000  0.90146000  1.0
  O  O376  1  0.39930000  0.39930000  0.04570000  1.0
  O  O377  1  0.45660000  0.45660000  0.90146000  1.0
  O  O378  1  0.39930000  0.39930000  0.15570000  1.0
  O  O379  1  0.45660000  0.45660000  0.18534000  1.0
  O  O380  1  0.04570000  0.15570000  0.39930000  1.0
  O  O381  1  0.90146000  0.18534000  0.45660000  1.0
  O  O382  1  0.15570000  0.04570000  0.39930000  1.0
  O  O383  1  0.18534000  0.90146000  0.45660000  1.0
  O  O384  1  0.58814000  0.95520000  0.95520000  1.0
  O  O385  1  0.50146000  0.95520000  0.95520000  1.0
  O  O386  1  0.95520000  0.50146000  0.58814000  1.0
  O  O387  1  0.95520000  0.58814000  0.50146000  1.0
  O  O388  1  0.95520000  0.95520000  0.58814000  1.0
  O  O389  1  0.95520000  0.95520000  0.50146000  1.0
  O  O390  1  0.50146000  0.58814000  0.95520000  1.0
  O  O391  1  0.58814000  0.50146000  0.95520000  1.0
  O  O392  1  0.95520000  0.58814000  0.95520000  1.0
  O  O393  1  0.95520000  0.50146000  0.95520000  1.0
  O  O394  1  0.58814000  0.95520000  0.50146000  1.0
  O  O395  1  0.50146000  0.95520000  0.58814000  1.0
  O  O396  1  0.49854000  0.04480000  0.04480000  1.0
  O  O397  1  0.41186000  0.04480000  0.04480000  1.0
  O  O398  1  0.04480000  0.49854000  0.41186000  1.0
  O  O399  1  0.04480000  0.41186000  0.49854000  1.0
  O  O400  1  0.49854000  0.04480000  0.41186000  1.0
  O  O401  1  0.41186000  0.04480000  0.49854000  1.0
  O  O402  1  0.04480000  0.41186000  0.04480000  1.0
  O  O403  1  0.04480000  0.49854000  0.04480000  1.0
  O  O404  1  0.49854000  0.41186000  0.04480000  1.0
  O  O405  1  0.41186000  0.49854000  0.04480000  1.0
  O  O406  1  0.04480000  0.04480000  0.49854000  1.0
  O  O407  1  0.04480000  0.04480000  0.41186000  1.0
  O  O408  1  0.45654000  0.06374000  0.93626000  1.0
  O  O409  1  0.54346000  0.93626000  0.06374000  1.0
  O  O410  1  0.93626000  0.54346000  0.45654000  1.0
  O  O411  1  0.06374000  0.45654000  0.54346000  1.0
  O  O412  1  0.06374000  0.93626000  0.45654000  1.0
  O  O413  1  0.93626000  0.06374000  0.54346000  1.0
  O  O414  1  0.54346000  0.45654000  0.93626000  1.0
  O  O415  1  0.45654000  0.54346000  0.06374000  1.0
  O  O416  1  0.93626000  0.45654000  0.06374000  1.0
  O  O417  1  0.06374000  0.54346000  0.93626000  1.0
  O  O418  1  0.45654000  0.93626000  0.54346000  1.0
  O  O419  1  0.54346000  0.06374000  0.45654000  1.0
  O  O420  1  0.45654000  0.93626000  0.06374000  1.0
  O  O421  1  0.54346000  0.06374000  0.93626000  1.0
  O  O422  1  0.93626000  0.45654000  0.54346000  1.0
  O  O423  1  0.06374000  0.54346000  0.45654000  1.0
  O  O424  1  0.45654000  0.06374000  0.54346000  1.0
  O  O425  1  0.54346000  0.93626000  0.45654000  1.0
  O  O426  1  0.93626000  0.54346000  0.06374000  1.0
  O  O427  1  0.06374000  0.45654000  0.93626000  1.0
  O  O428  1  0.45654000  0.54346000  0.93626000  1.0
  O  O429  1  0.54346000  0.45654000  0.06374000  1.0
  O  O430  1  0.93626000  0.06374000  0.45654000  1.0
  O  O431  1  0.06374000  0.93626000  0.54346000  1.0
  S  S432  1  0.75122000  0.75122000  0.02614000  1.0
  S  S433  1  0.47142000  0.02614000  0.75122000  1.0
  S  S434  1  0.02614000  0.47142000  0.75122000  1.0
  S  S435  1  0.75122000  0.75122000  0.47142000  1.0
  S  S436  1  0.75122000  0.02614000  0.75122000  1.0
  S  S437  1  0.02614000  0.75122000  0.47142000  1.0
  S  S438  1  0.47142000  0.75122000  0.02614000  1.0
  S  S439  1  0.75122000  0.47142000  0.75122000  1.0
  S  S440  1  0.02614000  0.75122000  0.75122000  1.0
  S  S441  1  0.75122000  0.47142000  0.02614000  1.0
  S  S442  1  0.75122000  0.02614000  0.47142000  1.0
  S  S443  1  0.47142000  0.75122000  0.75122000  1.0
  S  S444  1  0.52858000  0.24878000  0.97386000  1.0
  S  S445  1  0.24878000  0.97386000  0.24878000  1.0
  S  S446  1  0.24878000  0.52858000  0.24878000  1.0
  S  S447  1  0.97386000  0.24878000  0.52858000  1.0
  S  S448  1  0.52858000  0.97386000  0.24878000  1.0
  S  S449  1  0.24878000  0.24878000  0.52858000  1.0
  S  S450  1  0.24878000  0.24878000  0.97386000  1.0
  S  S451  1  0.97386000  0.52858000  0.24878000  1.0
  S  S452  1  0.52858000  0.24878000  0.24878000  1.0
  S  S453  1  0.24878000  0.52858000  0.97386000  1.0
  S  S454  1  0.24878000  0.97386000  0.52858000  1.0
  S  S455  1  0.97386000  0.24878000  0.24878000  1.0
  Zr  Zr456  1  0.54525000  0.01847000  0.89103000  1.0
  Zr  Zr457  1  0.54525000  0.89103000  0.01847000  1.0
  Zr  Zr458  1  0.89103000  0.54525000  0.54525000  1.0
  Zr  Zr459  1  0.01847000  0.54525000  0.54525000  1.0
  Zr  Zr460  1  0.01847000  0.89103000  0.54525000  1.0
  Zr  Zr461  1  0.89103000  0.01847000  0.54525000  1.0
  Zr  Zr462  1  0.54525000  0.54525000  0.89103000  1.0
  Zr  Zr463  1  0.54525000  0.54525000  0.01847000  1.0
  Zr  Zr464  1  0.89103000  0.54525000  0.01847000  1.0
  Zr  Zr465  1  0.01847000  0.54525000  0.89103000  1.0
  Zr  Zr466  1  0.54525000  0.89103000  0.54525000  1.0
  Zr  Zr467  1  0.54525000  0.01847000  0.54525000  1.0
  Zr  Zr468  1  0.45475000  0.98153000  0.10897000  1.0
  Zr  Zr469  1  0.45475000  0.10897000  0.98153000  1.0
  Zr  Zr470  1  0.98153000  0.45475000  0.45475000  1.0
  Zr  Zr471  1  0.10897000  0.45475000  0.45475000  1.0
  Zr  Zr472  1  0.45475000  0.10897000  0.45475000  1.0
  Zr  Zr473  1  0.45475000  0.98153000  0.45475000  1.0
  Zr  Zr474  1  0.98153000  0.45475000  0.10897000  1.0
  Zr  Zr475  1  0.10897000  0.45475000  0.98153000  1.0
  Zr  Zr476  1  0.45475000  0.45475000  0.98153000  1.0
  Zr  Zr477  1  0.45475000  0.45475000  0.10897000  1.0
  Zr  Zr478  1  0.98153000  0.10897000  0.45475000  1.0
  Zr  Zr479  1  0.10897000  0.98153000  0.45475000  1.0
  Zr  Zr480  1  0.58912000  1.00000000  1.00000000  1.0
  Zr  Zr481  1  0.41088000  0.00000000  0.00000000  1.0
  Zr  Zr482  1  0.00000000  0.41088000  0.58912000  1.0
  Zr  Zr483  1  0.00000000  0.58912000  0.41088000  1.0
  Zr  Zr484  1  1.00000000  0.00000000  0.58912000  1.0
  Zr  Zr485  1  1.00000000  0.00000000  0.41088000  1.0
  Zr  Zr486  1  0.41088000  0.58912000  0.00000000  1.0
  Zr  Zr487  1  0.58912000  0.41088000  0.00000000  1.0
  Zr  Zr488  1  0.00000000  0.58912000  1.00000000  1.0
  Zr  Zr489  1  1.00000000  0.41088000  0.00000000  1.0
  Zr  Zr490  1  0.58912000  0.00000000  0.41088000  1.0
  Zr  Zr491  1  0.41088000  0.00000000  0.58912000  1.0
