# generated using pymatgen
data_Zr3H4C12(SO8)2
_symmetry_space_group_name_H-M   'P 1'
_cell_length_a   27.65494621
_cell_length_b   27.65494621
_cell_length_c   27.65494621
_cell_angle_alpha   60.00000000
_cell_angle_beta   60.00000000
_cell_angle_gamma   60.00000000
_symmetry_Int_Tables_number   1
_chemical_formula_structural   Zr3H4C12(SO8)2
_chemical_formula_sum   'Zr36 H48 C144 S24 O192'
_cell_volume   14955.58675775
_cell_formula_units_Z   12
loop_
 _symmetry_equiv_pos_site_id
 _symmetry_equiv_pos_as_xyz
  1  'x, y, z'
loop_
 _atom_site_type_symbol
 _atom_site_label
 _atom_site_symmetry_multiplicity
 _atom_site_fract_x
 _atom_site_fract_y
 _atom_site_fract_z
 _atom_site_occupancy
  C  C0  1  0.67371000  0.86537000  0.01971000  1
  C  C1  1  0.73371000  0.82201000  0.01957000  1
  C  C2  1  0.78040000  0.83140000  0.01340000  1
  C  C3  1  0.86537000  0.67371000  0.01971000  1
  C  C4  1  0.82201000  0.73371000  0.01957000  1
  C  C5  1  0.83140000  0.78040000  0.01340000  1
  C  C6  1  0.86537000  0.01971000  0.67371000  1
  C  C7  1  0.82201000  0.01957000  0.73371000  1
  C  C8  1  0.83140000  0.01340000  0.78040000  1
  C  C9  1  0.67371000  0.01971000  0.86537000  1
  C  C10  1  0.73371000  0.01957000  0.82201000  1
  C  C11  1  0.78040000  0.01340000  0.83140000  1
  C  C12  1  0.98029000  0.32629000  0.55879000  1
  C  C13  1  0.98043000  0.26629000  0.57529000  1
  C  C14  1  0.98660000  0.21960000  0.62520000  1
  C  C15  1  0.98029000  0.13463000  0.55879000  1
  C  C16  1  0.98043000  0.17799000  0.57529000  1
  C  C17  1  0.98660000  0.16860000  0.62520000  1
  C  C18  1  0.32629000  0.13463000  0.55879000  1
  C  C19  1  0.26629000  0.17799000  0.57529000  1
  C  C20  1  0.21960000  0.16860000  0.62520000  1
  C  C21  1  0.13463000  0.32629000  0.55879000  1
  C  C22  1  0.17799000  0.26629000  0.57529000  1
  C  C23  1  0.16860000  0.21960000  0.62520000  1
  C  C24  1  0.44121000  0.01971000  0.86537000  1
  C  C25  1  0.42471000  0.01957000  0.82201000  1
  C  C26  1  0.37480000  0.01340000  0.83140000  1
  C  C27  1  0.44121000  0.01971000  0.67371000  1
  C  C28  1  0.42471000  0.01957000  0.73371000  1
  C  C29  1  0.37480000  0.01340000  0.78040000  1
  C  C30  1  0.44121000  0.67371000  0.01971000  1
  C  C31  1  0.42471000  0.73371000  0.01957000  1
  C  C32  1  0.37480000  0.78040000  0.01340000  1
  C  C33  1  0.44121000  0.86537000  0.01971000  1
  C  C34  1  0.42471000  0.82201000  0.01957000  1
  C  C35  1  0.37480000  0.83140000  0.01340000  1
  C  C36  1  0.13463000  0.55879000  0.32629000  1
  C  C37  1  0.17799000  0.57529000  0.26629000  1
  C  C38  1  0.16860000  0.62520000  0.21960000  1
  C  C39  1  0.32629000  0.55879000  0.13463000  1
  C  C40  1  0.26629000  0.57529000  0.17799000  1
  C  C41  1  0.21960000  0.62520000  0.16860000  1
  C  C42  1  0.98029000  0.55879000  0.13463000  1
  C  C43  1  0.98043000  0.57529000  0.17799000  1
  C  C44  1  0.98660000  0.62520000  0.16860000  1
  C  C45  1  0.98029000  0.55879000  0.32629000  1
  C  C46  1  0.98043000  0.57529000  0.26629000  1
  C  C47  1  0.98660000  0.62520000  0.21960000  1
  C  C48  1  0.86537000  0.67371000  0.44121000  1
  C  C49  1  0.82201000  0.73371000  0.42471000  1
  C  C50  1  0.83140000  0.78040000  0.37480000  1
  C  C51  1  0.67371000  0.86537000  0.44121000  1
  C  C52  1  0.73371000  0.82201000  0.42471000  1
  C  C53  1  0.78040000  0.83140000  0.37480000  1
  C  C54  1  0.01971000  0.86537000  0.44121000  1
  C  C55  1  0.01957000  0.82201000  0.42471000  1
  C  C56  1  0.01340000  0.83140000  0.37480000  1
  C  C57  1  0.01971000  0.67371000  0.44121000  1
  C  C58  1  0.01957000  0.73371000  0.42471000  1
  C  C59  1  0.01340000  0.78040000  0.37480000  1
  C  C60  1  0.55879000  0.13463000  0.98029000  1
  C  C61  1  0.57529000  0.17799000  0.98043000  1
  C  C62  1  0.62520000  0.16860000  0.98660000  1
  C  C63  1  0.55879000  0.32629000  0.98029000  1
  C  C64  1  0.57529000  0.26629000  0.98043000  1
  C  C65  1  0.62520000  0.21960000  0.98660000  1
  C  C66  1  0.55879000  0.98029000  0.32629000  1
  C  C67  1  0.57529000  0.98043000  0.26629000  1
  C  C68  1  0.62520000  0.98660000  0.21960000  1
  C  C69  1  0.55879000  0.98029000  0.13463000  1
  C  C70  1  0.57529000  0.98043000  0.17799000  1
  C  C71  1  0.62520000  0.98660000  0.16860000  1
  C  C72  1  0.01971000  0.44121000  0.67371000  1
  C  C73  1  0.01957000  0.42471000  0.73371000  1
  C  C74  1  0.01340000  0.37480000  0.78040000  1
  C  C75  1  0.01971000  0.44121000  0.86537000  1
  C  C76  1  0.01957000  0.42471000  0.82201000  1
  C  C77  1  0.01340000  0.37480000  0.83140000  1
  C  C78  1  0.67371000  0.44121000  0.86537000  1
  C  C79  1  0.73371000  0.42471000  0.82201000  1
  C  C80  1  0.78040000  0.37480000  0.83140000  1
  C  C81  1  0.86537000  0.44121000  0.67371000  1
  C  C82  1  0.82201000  0.42471000  0.73371000  1
  C  C83  1  0.83140000  0.37480000  0.78040000  1
  C  C84  1  0.32629000  0.98029000  0.13463000  1
  C  C85  1  0.26629000  0.98043000  0.17799000  1
  C  C86  1  0.21960000  0.98660000  0.16860000  1
  C  C87  1  0.13463000  0.98029000  0.32629000  1
  C  C88  1  0.17799000  0.98043000  0.26629000  1
  C  C89  1  0.16860000  0.98660000  0.21960000  1
  C  C90  1  0.13463000  0.32629000  0.98029000  1
  C  C91  1  0.17799000  0.26629000  0.98043000  1
  C  C92  1  0.16860000  0.21960000  0.98660000  1
  C  C93  1  0.32629000  0.13463000  0.98029000  1
  C  C94  1  0.26629000  0.17799000  0.98043000  1
  C  C95  1  0.21960000  0.16860000  0.98660000  1
  C  C96  1  0.01971000  0.67371000  0.86537000  1
  C  C97  1  0.01957000  0.73371000  0.82201000  1
  C  C98  1  0.01340000  0.78040000  0.83140000  1
  C  C99  1  0.01971000  0.86537000  0.67371000  1
  C  C100  1  0.01957000  0.82201000  0.73371000  1
  C  C101  1  0.01340000  0.83140000  0.78040000  1
  C  C102  1  0.13463000  0.98029000  0.55879000  1
  C  C103  1  0.17799000  0.98043000  0.57529000  1
  C  C104  1  0.16860000  0.98660000  0.62520000  1
  C  C105  1  0.32629000  0.98029000  0.55879000  1
  C  C106  1  0.26629000  0.98043000  0.57529000  1
  C  C107  1  0.21960000  0.98660000  0.62520000  1
  C  C108  1  0.44121000  0.86537000  0.67371000  1
  C  C109  1  0.42471000  0.82201000  0.73371000  1
  C  C110  1  0.37480000  0.83140000  0.78040000  1
  C  C111  1  0.44121000  0.67371000  0.86537000  1
  C  C112  1  0.42471000  0.73371000  0.82201000  1
  C  C113  1  0.37480000  0.78040000  0.83140000  1
  C  C114  1  0.32629000  0.55879000  0.98029000  1
  C  C115  1  0.26629000  0.57529000  0.98043000  1
  C  C116  1  0.21960000  0.62520000  0.98660000  1
  C  C117  1  0.13463000  0.55879000  0.98029000  1
  C  C118  1  0.17799000  0.57529000  0.98043000  1
  C  C119  1  0.16860000  0.62520000  0.98660000  1
  C  C120  1  0.67371000  0.01971000  0.44121000  1
  C  C121  1  0.73371000  0.01957000  0.42471000  1
  C  C122  1  0.78040000  0.01340000  0.37480000  1
  C  C123  1  0.86537000  0.01971000  0.44121000  1
  C  C124  1  0.82201000  0.01957000  0.42471000  1
  C  C125  1  0.83140000  0.01340000  0.37480000  1
  C  C126  1  0.55879000  0.32629000  0.13463000  1
  C  C127  1  0.57529000  0.26629000  0.17799000  1
  C  C128  1  0.62520000  0.21960000  0.16860000  1
  C  C129  1  0.55879000  0.13463000  0.32629000  1
  C  C130  1  0.57529000  0.17799000  0.26629000  1
  C  C131  1  0.62520000  0.16860000  0.21960000  1
  C  C132  1  0.86537000  0.44121000  0.01971000  1
  C  C133  1  0.82201000  0.42471000  0.01957000  1
  C  C134  1  0.83140000  0.37480000  0.01340000  1
  C  C135  1  0.67371000  0.44121000  0.01971000  1
  C  C136  1  0.73371000  0.42471000  0.01957000  1
  C  C137  1  0.78040000  0.37480000  0.01340000  1
  C  C138  1  0.98029000  0.13463000  0.32629000  1
  C  C139  1  0.98043000  0.17799000  0.26629000  1
  C  C140  1  0.98660000  0.16860000  0.21960000  1
  C  C141  1  0.98029000  0.32629000  0.13463000  1
  C  C142  1  0.98043000  0.26629000  0.17799000  1
  C  C143  1  0.98660000  0.21960000  0.16860000  1
  H  H144  1  0.77900000  0.86740000  0.00960000  1
  H  H145  1  0.86740000  0.77900000  0.00960000  1
  H  H146  1  0.86740000  0.00960000  0.77900000  1
  H  H147  1  0.77900000  0.00960000  0.86740000  1
  H  H148  1  0.99040000  0.22100000  0.65600000  1
  H  H149  1  0.99040000  0.13260000  0.65600000  1
  H  H150  1  0.22100000  0.13260000  0.65600000  1
  H  H151  1  0.13260000  0.22100000  0.65600000  1
  H  H152  1  0.34400000  0.00960000  0.86740000  1
  H  H153  1  0.34400000  0.00960000  0.77900000  1
  H  H154  1  0.34400000  0.77900000  0.00960000  1
  H  H155  1  0.34400000  0.86740000  0.00960000  1
  H  H156  1  0.13260000  0.65600000  0.22100000  1
  H  H157  1  0.22100000  0.65600000  0.13260000  1
  H  H158  1  0.99040000  0.65600000  0.13260000  1
  H  H159  1  0.99040000  0.65600000  0.22100000  1
  H  H160  1  0.86740000  0.77900000  0.34400000  1
  H  H161  1  0.77900000  0.86740000  0.34400000  1
  H  H162  1  0.00960000  0.86740000  0.34400000  1
  H  H163  1  0.00960000  0.77900000  0.34400000  1
  H  H164  1  0.65600000  0.13260000  0.99040000  1
  H  H165  1  0.65600000  0.22100000  0.99040000  1
  H  H166  1  0.65600000  0.99040000  0.22100000  1
  H  H167  1  0.65600000  0.99040000  0.13260000  1
  H  H168  1  0.00960000  0.34400000  0.77900000  1
  H  H169  1  0.00960000  0.34400000  0.86740000  1
  H  H170  1  0.77900000  0.34400000  0.86740000  1
  H  H171  1  0.86740000  0.34400000  0.77900000  1
  H  H172  1  0.22100000  0.99040000  0.13260000  1
  H  H173  1  0.13260000  0.99040000  0.22100000  1
  H  H174  1  0.13260000  0.22100000  0.99040000  1
  H  H175  1  0.22100000  0.13260000  0.99040000  1
  H  H176  1  0.00960000  0.77900000  0.86740000  1
  H  H177  1  0.00960000  0.86740000  0.77900000  1
  H  H178  1  0.13260000  0.99040000  0.65600000  1
  H  H179  1  0.22100000  0.99040000  0.65600000  1
  H  H180  1  0.34400000  0.86740000  0.77900000  1
  H  H181  1  0.34400000  0.77900000  0.86740000  1
  H  H182  1  0.22100000  0.65600000  0.99040000  1
  H  H183  1  0.13260000  0.65600000  0.99040000  1
  H  H184  1  0.77900000  0.00960000  0.34400000  1
  H  H185  1  0.86740000  0.00960000  0.34400000  1
  H  H186  1  0.65600000  0.22100000  0.13260000  1
  H  H187  1  0.65600000  0.13260000  0.22100000  1
  H  H188  1  0.86740000  0.34400000  0.00960000  1
  H  H189  1  0.77900000  0.34400000  0.00960000  1
  H  H190  1  0.99040000  0.13260000  0.22100000  1
  H  H191  1  0.99040000  0.22100000  0.13260000  1
  O  O192  1  0.66460000  0.91704000  0.01436000  1
  O  O193  1  0.58630000  0.95620000  0.95620000  1
  O  O194  1  0.63782000  0.84712000  0.02402000  1
  O  O195  1  0.60053000  0.95227000  0.84667000  1
  O  O196  1  0.54330000  0.09904000  0.81436000  1
  O  O197  1  0.45656000  0.06356000  0.93644000  1
  O  O198  1  0.91704000  0.66460000  0.01436000  1
  O  O199  1  0.84712000  0.63782000  0.02402000  1
  O  O200  1  0.91704000  0.01436000  0.66460000  1
  O  O201  1  0.84712000  0.02402000  0.63782000  1
  O  O202  1  0.66460000  0.01436000  0.91704000  1
  O  O203  1  0.63782000  0.02402000  0.84712000  1
  O  O204  1  0.50130000  0.95620000  0.95620000  1
  O  O205  1  0.60053000  0.84667000  0.95227000  1
  O  O206  1  0.54330000  0.81436000  0.09904000  1
  O  O207  1  0.54344000  0.93644000  0.06356000  1
  O  O208  1  0.59600000  0.08296000  0.98564000  1
  O  O209  1  0.59600000  0.98564000  0.08296000  1
  O  O210  1  0.49870000  0.04380000  0.04380000  1
  O  O211  1  0.49104000  0.02402000  0.84712000  1
  O  O212  1  0.49104000  0.84712000  0.02402000  1
  O  O213  1  0.45656000  0.93644000  0.06356000  1
  O  O214  1  0.54344000  0.06356000  0.93644000  1
  O  O215  1  0.98564000  0.33540000  0.59600000  1
  O  O216  1  0.04380000  0.41370000  0.49870000  1
  O  O217  1  0.97598000  0.36218000  0.50896000  1
  O  O218  1  0.15333000  0.39947000  0.39947000  1
  O  O219  1  0.18564000  0.45670000  0.45670000  1
  O  O220  1  0.06356000  0.54344000  0.45656000  1
  O  O221  1  0.98564000  0.08296000  0.59600000  1
  O  O222  1  0.97598000  0.15288000  0.50896000  1
  O  O223  1  0.33540000  0.08296000  0.59600000  1
  O  O224  1  0.36218000  0.15288000  0.50896000  1
  O  O225  1  0.08296000  0.33540000  0.59600000  1
  O  O226  1  0.15288000  0.36218000  0.50896000  1
  O  O227  1  0.04380000  0.49870000  0.41370000  1
  O  O228  1  0.04773000  0.39947000  0.39947000  1
  O  O229  1  0.90096000  0.45670000  0.45670000  1
  O  O230  1  0.93644000  0.45656000  0.54344000  1
  O  O231  1  0.01436000  0.40400000  0.66460000  1
  O  O232  1  0.91704000  0.40400000  0.66460000  1
  O  O233  1  0.95620000  0.50130000  0.58630000  1
  O  O234  1  0.15288000  0.50896000  0.36218000  1
  O  O235  1  0.97598000  0.50896000  0.36218000  1
  O  O236  1  0.93644000  0.54344000  0.45656000  1
  O  O237  1  0.06356000  0.45656000  0.54344000  1
  O  O238  1  0.40400000  0.01436000  0.91704000  1
  O  O239  1  0.40400000  0.01436000  0.66460000  1
  O  O240  1  0.49104000  0.02402000  0.63782000  1
  O  O241  1  0.40400000  0.66460000  0.01436000  1
  O  O242  1  0.49104000  0.63782000  0.02402000  1
  O  O243  1  0.40400000  0.91704000  0.01436000  1
  O  O244  1  0.33540000  0.98564000  0.08296000  1
  O  O245  1  0.33540000  0.08296000  0.98564000  1
  O  O246  1  0.41370000  0.04380000  0.04380000  1
  O  O247  1  0.08296000  0.59600000  0.33540000  1
  O  O248  1  0.33540000  0.59600000  0.08296000  1
  O  O249  1  0.36218000  0.50896000  0.15288000  1
  O  O250  1  0.98564000  0.59600000  0.08296000  1
  O  O251  1  0.97598000  0.50896000  0.15288000  1
  O  O252  1  0.98564000  0.59600000  0.33540000  1
  O  O253  1  0.91704000  0.66460000  0.40400000  1
  O  O254  1  0.01436000  0.66460000  0.40400000  1
  O  O255  1  0.95620000  0.58630000  0.50130000  1
  O  O256  1  0.84712000  0.63782000  0.49104000  1
  O  O257  1  0.95227000  0.60053000  0.60053000  1
  O  O258  1  0.09904000  0.54330000  0.54330000  1
  O  O259  1  0.66460000  0.91704000  0.40400000  1
  O  O260  1  0.63782000  0.84712000  0.49104000  1
  O  O261  1  0.01436000  0.91704000  0.40400000  1
  O  O262  1  0.02402000  0.84712000  0.49104000  1
  O  O263  1  0.02402000  0.63782000  0.49104000  1
  O  O264  1  0.84667000  0.60053000  0.60053000  1
  O  O265  1  0.81436000  0.54330000  0.54330000  1
  O  O266  1  0.02402000  0.49104000  0.63782000  1
  O  O267  1  0.84712000  0.49104000  0.63782000  1
  O  O268  1  0.50896000  0.15288000  0.97598000  1
  O  O269  1  0.39947000  0.04773000  0.15333000  1
  O  O270  1  0.45670000  0.90096000  0.18564000  1
  O  O271  1  0.59600000  0.33540000  0.98564000  1
  O  O272  1  0.50896000  0.36218000  0.97598000  1
  O  O273  1  0.59600000  0.98564000  0.33540000  1
  O  O274  1  0.50896000  0.97598000  0.36218000  1
  O  O275  1  0.50896000  0.97598000  0.15288000  1
  O  O276  1  0.39947000  0.15333000  0.04773000  1
  O  O277  1  0.45670000  0.18564000  0.90096000  1
  O  O278  1  0.36218000  0.97598000  0.15288000  1
  O  O279  1  0.36218000  0.15288000  0.97598000  1
  O  O280  1  0.01436000  0.40400000  0.91704000  1
  O  O281  1  0.02402000  0.49104000  0.84712000  1
  O  O282  1  0.66460000  0.40400000  0.91704000  1
  O  O283  1  0.63782000  0.49104000  0.84712000  1
  O  O284  1  0.08296000  0.98564000  0.33540000  1
  O  O285  1  0.15288000  0.97598000  0.36218000  1
  O  O286  1  0.08296000  0.33540000  0.98564000  1
  O  O287  1  0.15288000  0.36218000  0.97598000  1
  O  O288  1  0.95620000  0.95620000  0.58630000  1
  O  O289  1  0.95227000  0.84667000  0.60053000  1
  O  O290  1  0.09904000  0.81436000  0.54330000  1
  O  O291  1  0.06356000  0.93644000  0.45656000  1
  O  O292  1  0.01436000  0.66460000  0.91704000  1
  O  O293  1  0.02402000  0.63782000  0.84712000  1
  O  O294  1  0.01436000  0.91704000  0.66460000  1
  O  O295  1  0.02402000  0.84712000  0.63782000  1
  O  O296  1  0.95620000  0.95620000  0.50130000  1
  O  O297  1  0.84667000  0.95227000  0.60053000  1
  O  O298  1  0.81436000  0.09904000  0.54330000  1
  O  O299  1  0.93644000  0.06356000  0.54344000  1
  O  O300  1  0.08296000  0.98564000  0.59600000  1
  O  O301  1  0.04380000  0.04380000  0.49870000  1
  O  O302  1  0.84712000  0.02402000  0.49104000  1
  O  O303  1  0.93644000  0.06356000  0.45656000  1
  O  O304  1  0.06356000  0.93644000  0.54344000  1
  O  O305  1  0.41370000  0.04380000  0.49870000  1
  O  O306  1  0.39947000  0.04773000  0.39947000  1
  O  O307  1  0.45670000  0.90096000  0.45670000  1
  O  O308  1  0.54344000  0.93644000  0.45656000  1
  O  O309  1  0.15288000  0.97598000  0.50896000  1
  O  O310  1  0.33540000  0.98564000  0.59600000  1
  O  O311  1  0.36218000  0.97598000  0.50896000  1
  O  O312  1  0.49870000  0.04380000  0.41370000  1
  O  O313  1  0.39947000  0.15333000  0.39947000  1
  O  O314  1  0.45670000  0.18564000  0.45670000  1
  O  O315  1  0.45656000  0.06356000  0.54344000  1
  O  O316  1  0.40400000  0.91704000  0.66460000  1
  O  O317  1  0.50130000  0.95620000  0.58630000  1
  O  O318  1  0.50896000  0.15288000  0.36218000  1
  O  O319  1  0.54344000  0.06356000  0.45656000  1
  O  O320  1  0.45656000  0.93644000  0.54344000  1
  O  O321  1  0.50130000  0.58630000  0.95620000  1
  O  O322  1  0.60053000  0.60053000  0.84667000  1
  O  O323  1  0.54330000  0.54330000  0.81436000  1
  O  O324  1  0.54344000  0.45656000  0.93644000  1
  O  O325  1  0.49104000  0.84712000  0.63782000  1
  O  O326  1  0.40400000  0.66460000  0.91704000  1
  O  O327  1  0.49104000  0.63782000  0.84712000  1
  O  O328  1  0.58630000  0.50130000  0.95620000  1
  O  O329  1  0.60053000  0.60053000  0.95227000  1
  O  O330  1  0.54330000  0.54330000  0.09904000  1
  O  O331  1  0.45656000  0.54344000  0.06356000  1
  O  O332  1  0.33540000  0.59600000  0.98564000  1
  O  O333  1  0.41370000  0.49870000  0.04380000  1
  O  O334  1  0.63782000  0.49104000  0.02402000  1
  O  O335  1  0.54344000  0.45656000  0.06356000  1
  O  O336  1  0.45656000  0.54344000  0.93644000  1
  O  O337  1  0.04380000  0.49870000  0.04380000  1
  O  O338  1  0.15333000  0.39947000  0.04773000  1
  O  O339  1  0.18564000  0.45670000  0.90096000  1
  O  O340  1  0.06356000  0.45656000  0.93644000  1
  O  O341  1  0.36218000  0.50896000  0.97598000  1
  O  O342  1  0.08296000  0.59600000  0.98564000  1
  O  O343  1  0.15288000  0.50896000  0.97598000  1
  O  O344  1  0.04380000  0.41370000  0.04380000  1
  O  O345  1  0.04773000  0.39947000  0.15333000  1
  O  O346  1  0.90096000  0.45670000  0.18564000  1
  O  O347  1  0.93644000  0.54344000  0.06356000  1
  O  O348  1  0.95620000  0.58630000  0.95620000  1
  O  O349  1  0.97598000  0.36218000  0.15288000  1
  O  O350  1  0.93644000  0.45656000  0.06356000  1
  O  O351  1  0.06356000  0.54344000  0.93644000  1
  O  O352  1  0.66460000  0.01436000  0.40400000  1
  O  O353  1  0.63782000  0.02402000  0.49104000  1
  O  O354  1  0.91704000  0.01436000  0.40400000  1
  O  O355  1  0.98564000  0.08296000  0.33540000  1
  O  O356  1  0.04380000  0.04380000  0.41370000  1
  O  O357  1  0.59600000  0.33540000  0.08296000  1
  O  O358  1  0.50896000  0.36218000  0.15288000  1
  O  O359  1  0.59600000  0.08296000  0.33540000  1
  O  O360  1  0.58630000  0.95620000  0.50130000  1
  O  O361  1  0.91704000  0.40400000  0.01436000  1
  O  O362  1  0.84712000  0.49104000  0.02402000  1
  O  O363  1  0.66460000  0.40400000  0.01436000  1
  O  O364  1  0.49870000  0.41370000  0.04380000  1
  O  O365  1  0.97598000  0.15288000  0.36218000  1
  O  O366  1  0.98564000  0.33540000  0.08296000  1
  O  O367  1  0.95620000  0.50130000  0.95620000  1
  O  O368  1  0.84667000  0.60053000  0.95227000  1
  O  O369  1  0.81436000  0.54330000  0.09904000  1
  O  O370  1  0.95227000  0.60053000  0.84667000  1
  O  O371  1  0.09904000  0.54330000  0.81436000  1
  O  O372  1  0.60053000  0.84667000  0.60053000  1
  O  O373  1  0.54330000  0.81436000  0.54330000  1
  O  O374  1  0.60053000  0.95227000  0.60053000  1
  O  O375  1  0.54330000  0.09904000  0.54330000  1
  O  O376  1  0.39947000  0.39947000  0.04773000  1
  O  O377  1  0.45670000  0.45670000  0.90096000  1
  O  O378  1  0.39947000  0.39947000  0.15333000  1
  O  O379  1  0.45670000  0.45670000  0.18564000  1
  O  O380  1  0.15333000  0.04773000  0.39947000  1
  O  O381  1  0.18564000  0.90096000  0.45670000  1
  O  O382  1  0.04773000  0.15333000  0.39947000  1
  O  O383  1  0.90096000  0.18564000  0.45670000  1
  S  S384  1  0.75132000  0.75132000  0.02504000  1
  S  S385  1  0.75132000  0.02504000  0.75132000  1
  S  S386  1  0.97496000  0.24868000  0.52768000  1
  S  S387  1  0.24868000  0.24868000  0.52768000  1
  S  S388  1  0.47232000  0.02504000  0.75132000  1
  S  S389  1  0.47232000  0.75132000  0.02504000  1
  S  S390  1  0.24868000  0.52768000  0.24868000  1
  S  S391  1  0.97496000  0.52768000  0.24868000  1
  S  S392  1  0.75132000  0.75132000  0.47232000  1
  S  S393  1  0.02504000  0.75132000  0.47232000  1
  S  S394  1  0.52768000  0.24868000  0.97496000  1
  S  S395  1  0.52768000  0.97496000  0.24868000  1
  S  S396  1  0.02504000  0.47232000  0.75132000  1
  S  S397  1  0.75132000  0.47232000  0.75132000  1
  S  S398  1  0.24868000  0.97496000  0.24868000  1
  S  S399  1  0.24868000  0.24868000  0.97496000  1
  S  S400  1  0.02504000  0.75132000  0.75132000  1
  S  S401  1  0.24868000  0.97496000  0.52768000  1
  S  S402  1  0.47232000  0.75132000  0.75132000  1
  S  S403  1  0.24868000  0.52768000  0.97496000  1
  S  S404  1  0.75132000  0.02504000  0.47232000  1
  S  S405  1  0.52768000  0.24868000  0.24868000  1
  S  S406  1  0.75132000  0.47232000  0.02504000  1
  S  S407  1  0.97496000  0.24868000  0.24868000  1
  Zr  Zr408  1  0.54530600  0.01822200  0.89116600  1
  Zr  Zr409  1  0.58933800  0.00000000  0.00000000  1
  Zr  Zr410  1  0.54530600  0.89116600  0.01822200  1
  Zr  Zr411  1  0.89116600  0.54530600  0.01822200  1
  Zr  Zr412  1  0.45469400  0.98177800  0.10883400  1
  Zr  Zr413  1  0.89116600  0.01822200  0.54530600  1
  Zr  Zr414  1  0.45469400  0.10883400  0.98177800  1
  Zr  Zr415  1  0.99999950  0.00000050  0.58933850  1
  Zr  Zr416  1  0.99999950  0.58933850  0.00000050  1
  Zr  Zr417  1  0.41066200  1.00000000  1.00000000  1
  Zr  Zr418  1  0.10883400  0.45469400  0.45469400  1
  Zr  Zr419  1  0.00000000  0.41066200  0.58933800  1
  Zr  Zr420  1  0.98177800  0.45469400  0.45469400  1
  Zr  Zr421  1  0.98177800  0.10883400  0.45469400  1
  Zr  Zr422  1  0.89116600  0.54530600  0.54530600  1
  Zr  Zr423  1  0.45469400  0.10883400  0.45469400  1
  Zr  Zr424  1  0.01822200  0.54530600  0.54530600  1
  Zr  Zr425  1  0.41066150  0.00000050  0.58933850  1
  Zr  Zr426  1  0.00000000  0.58933800  0.41066200  1
  Zr  Zr427  1  0.54530600  0.01822200  0.54530600  1
  Zr  Zr428  1  0.54530600  0.54530600  0.01822200  1
  Zr  Zr429  1  0.41066150  0.58933850  0.00000050  1
  Zr  Zr430  1  0.45469400  0.45469400  0.10883400  1
  Zr  Zr431  1  0.98177800  0.45469400  0.10883400  1
  Zr  Zr432  1  0.54530600  0.89116600  0.54530600  1
  Zr  Zr433  1  0.01822200  0.89116600  0.54530600  1
  Zr  Zr434  1  0.00000050  0.99999950  0.41066150  1
  Zr  Zr435  1  0.58933850  0.99999950  0.41066150  1
  Zr  Zr436  1  0.45469400  0.45469400  0.98177800  1
  Zr  Zr437  1  0.45469400  0.98177800  0.45469400  1
  Zr  Zr438  1  0.58933850  0.41066150  0.99999950  1
  Zr  Zr439  1  0.01822200  0.54530600  0.89116600  1
  Zr  Zr440  1  0.54530600  0.54530600  0.89116600  1
  Zr  Zr441  1  0.00000050  0.41066150  0.99999950  1
  Zr  Zr442  1  0.10883400  0.98177800  0.45469400  1
  Zr  Zr443  1  0.10883400  0.45469400  0.98177800  1
