# generated using pymatgen
data_Zr6H10C30S5O28
_symmetry_space_group_name_H-M   'P 1'
_cell_length_a   13.57000000
_cell_length_b   19.80000000
_cell_length_c   28.39000000
_cell_angle_alpha   90.00000000
_cell_angle_beta   90.00000000
_cell_angle_gamma   90.00000000
_symmetry_Int_Tables_number   1
_chemical_formula_structural   Zr6H10C30S5O28
_chemical_formula_sum   'Zr24 H40 C120 S20 O112'
_cell_volume   7627.99554000
_cell_formula_units_Z   4
loop_
 _symmetry_equiv_pos_site_id
 _symmetry_equiv_pos_as_xyz
  1  'x, y, z'
loop_
 _atom_site_type_symbol
 _atom_site_label
 _atom_site_symmetry_multiplicity
 _atom_site_fract_x
 _atom_site_fract_y
 _atom_site_fract_z
 _atom_site_occupancy
  Zr  Zr0  1  0.80627000  0.87807000  0.87340000  1
  Zr  Zr1  1  0.69610000  0.11690000  0.87640000  1
  Zr  Zr2  1  0.61250000  0.97000000  0.82131000  1
  Zr  Zr3  1  0.87210000  0.02410000  0.81720000  1
  Zr  Zr4  1  0.62330000  0.96730000  0.93820000  1
  Zr  Zr5  1  0.86840000  0.03240000  0.93420000  1
  Zr  Zr6  1  0.69373000  0.12193000  0.37340000  1
  Zr  Zr7  1  0.80390000  0.88310000  0.37640000  1
  Zr  Zr8  1  0.88750000  0.03000000  0.32131000  1
  Zr  Zr9  1  0.62790000  0.97590000  0.31720000  1
  Zr  Zr10  1  0.87670000  0.03270000  0.43820000  1
  Zr  Zr11  1  0.63160000  0.96760000  0.43420000  1
  Zr  Zr12  1  0.30627000  0.62193000  0.12660000  1
  Zr  Zr13  1  0.19610000  0.38310000  0.12360000  1
  Zr  Zr14  1  0.11250000  0.53000000  0.17869000  1
  Zr  Zr15  1  0.37210000  0.47590000  0.18280000  1
  Zr  Zr16  1  0.12330000  0.53270000  0.06180000  1
  Zr  Zr17  1  0.36840000  0.46760000  0.06580000  1
  Zr  Zr18  1  0.19373000  0.37807000  0.62660000  1
  Zr  Zr19  1  0.30390000  0.61690000  0.62360000  1
  Zr  Zr20  1  0.38750000  0.47000000  0.67869000  1
  Zr  Zr21  1  0.12790000  0.52410000  0.68280000  1
  Zr  Zr22  1  0.37670000  0.46730000  0.56180000  1
  Zr  Zr23  1  0.13160000  0.53240000  0.56580000  1
  H  H24  1  0.70490000  0.67630000  0.81020000  1
  H  H25  1  0.62230000  0.58650000  0.76460000  1
  H  H26  1  0.72240000  0.67310000  0.94470000  1
  H  H27  1  0.62300000  0.58600000  0.98440000  1
  H  H28  1  0.79220000  0.32480000  0.93830000  1
  H  H29  1  0.90400000  0.41320000  0.96750000  1
  H  H30  1  0.82090000  0.32060000  0.82810000  1
  H  H31  1  0.92110000  0.40840000  0.78460000  1
  H  H32  1  0.54180000  0.98500000  0.66666667  1
  H  H33  1  0.54010000  0.96540000  0.58190000  1
  H  H34  1  0.79510000  0.32370000  0.31020000  1
  H  H35  1  0.87770000  0.41350000  0.26460000  1
  H  H36  1  0.77760000  0.32690000  0.44470000  1
  H  H37  1  0.87700000  0.41400000  0.48440000  1
  H  H38  1  0.70780000  0.67520000  0.43830000  1
  H  H39  1  0.59600000  0.58680000  0.46750000  1
  H  H40  1  0.67910000  0.67940000  0.32810000  1
  H  H41  1  0.57890000  0.59160000  0.28460000  1
  H  H42  1  0.95820000  0.01500000  0.16660000  1
  H  H43  1  0.95990000  0.03460000  0.08190000  1
  H  H44  1  0.20490000  0.82370000  0.18980000  1
  H  H45  1  0.12230000  0.91350000  0.23540000  1
  H  H46  1  0.22240000  0.82690000  0.05530000  1
  H  H47  1  0.12300000  0.91400000  0.01560000  1
  H  H48  1  0.29220000  0.17520000  0.06170000  1
  H  H49  1  0.40400000  0.08680000  0.03250000  1
  H  H50  1  0.32090000  0.17940000  0.17190000  1
  H  H51  1  0.42110000  0.09160000  0.21540000  1
  H  H52  1  0.04180000  0.51500000  0.33340000  1
  H  H53  1  0.04010000  0.53460000  0.41810000  1
  H  H54  1  0.29510000  0.17630000  0.68980000  1
  H  H55  1  0.37770000  0.08650000  0.73540000  1
  H  H56  1  0.27760000  0.17310000  0.55530000  1
  H  H57  1  0.37700000  0.08600000  0.51560000  1
  H  H58  1  0.20780000  0.82480000  0.56170000  1
  H  H59  1  0.09600000  0.91320000  0.53250000  1
  H  H60  1  0.17910000  0.82060000  0.67190000  1
  H  H61  1  0.07890000  0.90840000  0.71540000  1
  H  H62  1  0.45820000  0.48500000  0.83340000  1
  H  H63  1  0.45990000  0.46540000  0.91810000  1
  C  C64  1  0.66160000  0.80820000  0.80170000  1
  C  C65  1  0.63260000  0.74510000  0.77500000  1
  C  C66  1  0.65900000  0.68510000  0.78650000  1
  C  C67  1  0.61300000  0.63240000  0.75940000  1
  C  C68  1  0.55190000  0.65800000  0.72480000  1
  C  C69  1  0.48730000  0.61800000  0.69520000  1
  C  C70  1  0.68340000  0.81420000  0.95790000  1
  C  C71  1  0.64800000  0.74640000  0.97740000  1
  C  C72  1  0.67300000  0.68310000  0.96620000  1
  C  C73  1  0.61700000  0.63210000  0.99010000  1
  C  C74  1  0.55500000  0.66060000  0.02240000  1
  C  C75  1  0.48790000  0.62380000  0.05390000  1
  C  C76  1  0.85330000  0.18510000  0.94500000  1
  C  C77  1  0.89000000  0.25480000  0.96550000  1
  C  C78  1  0.85000000  0.31740000  0.95530000  1
  C  C79  1  0.90900000  0.36750000  0.97470000  1
  C  C80  1  0.97850000  0.34080000  0.00630000  1
  C  C81  1  0.04710000  0.38120000  0.03850000  1
  C  C82  1  0.83250000  0.18450000  0.79940000  1
  C  C83  1  0.88200000  0.24770000  0.78600000  1
  C  C84  1  0.86500000  0.31110000  0.80380000  1
  C  C85  1  0.92500000  0.36220000  0.77910000  1
  C  C86  1  0.98400000  0.33430000  0.74870000  1
  C  C87  1  0.04820000  0.37540000  0.71640000  1
  C  C88  1  0.71500000  0.99450000  0.72020000  1
  C  C89  1  0.69050000  0.99170000  0.67040000  1
  C  C90  1  0.59900000  0.98500000  0.64870000  1
  C  C91  1  0.59400000  0.97900000  0.59960000  1
  C  C92  1  0.68800000  0.99750000  0.58200000  1
  C  C93  1  0.70800000  0.00060000  0.53170000  1
  C  C94  1  0.83840000  0.19180000  0.30170000  1
  C  C95  1  0.86740000  0.25490000  0.27500000  1
  C  C96  1  0.84100000  0.31490000  0.28650000  1
  C  C97  1  0.88700000  0.36760000  0.25940000  1
  C  C98  1  0.94810000  0.34200000  0.22480000  1
  C  C99  1  0.01270000  0.38200000  0.19520000  1
  C  C100  1  0.81660000  0.18580000  0.45790000  1
  C  C101  1  0.85200000  0.25360000  0.47740000  1
  C  C102  1  0.82700000  0.31690000  0.46620000  1
  C  C103  1  0.88300000  0.36790000  0.49010000  1
  C  C104  1  0.94500000  0.33940000  0.52240000  1
  C  C105  1  0.01210000  0.37620000  0.55390000  1
  C  C106  1  0.64670000  0.81490000  0.44500000  1
  C  C107  1  0.61000000  0.74520000  0.46550000  1
  C  C108  1  0.65000000  0.68260000  0.45530000  1
  C  C109  1  0.59100000  0.63250000  0.47470000  1
  C  C110  1  0.52150000  0.65920000  0.50630000  1
  C  C111  1  0.45290000  0.61880000  0.53850000  1
  C  C112  1  0.66750000  0.81550000  0.29940000  1
  C  C113  1  0.61800000  0.75230000  0.28600000  1
  C  C114  1  0.63500000  0.68890000  0.30380000  1
  C  C115  1  0.57500000  0.63780000  0.27910000  1
  C  C116  1  0.51600000  0.66570000  0.24870000  1
  C  C117  1  0.45180000  0.62460000  0.21640000  1
  C  C118  1  0.78500000  0.00550000  0.22020000  1
  C  C119  1  0.80950000  0.00830000  0.17040000  1
  C  C120  1  0.90100000  0.01500000  0.14870000  1
  C  C121  1  0.90600000  0.02100000  0.09960000  1
  C  C122  1  0.81200000  0.00250000  0.08200000  1
  C  C123  1  0.79200000  0.99940000  0.03170000  1
  C  C124  1  0.16160000  0.69180000  0.19830000  1
  C  C125  1  0.13260000  0.75490000  0.22500000  1
  C  C126  1  0.15900000  0.81490000  0.21350000  1
  C  C127  1  0.11300000  0.86760000  0.24060000  1
  C  C128  1  0.05190000  0.84200000  0.27520000  1
  C  C129  1  0.98730000  0.88200000  0.30480000  1
  C  C130  1  0.18340000  0.68580000  0.04210000  1
  C  C131  1  0.14800000  0.75360000  0.02260000  1
  C  C132  1  0.17300000  0.81690000  0.03380000  1
  C  C133  1  0.11700000  0.86790000  0.00990000  1
  C  C134  1  0.05500000  0.83940000  0.97760000  1
  C  C135  1  0.98790000  0.87620000  0.94610000  1
  C  C136  1  0.35330000  0.31490000  0.05500000  1
  C  C137  1  0.39000000  0.24520000  0.03450000  1
  C  C138  1  0.35000000  0.18260000  0.04470000  1
  C  C139  1  0.40900000  0.13250000  0.02530000  1
  C  C140  1  0.47850000  0.15920000  0.99370000  1
  C  C141  1  0.54710000  0.11880000  0.96150000  1
  C  C142  1  0.33250000  0.31550000  0.20060000  1
  C  C143  1  0.38200000  0.25230000  0.21400000  1
  C  C144  1  0.36500000  0.18890000  0.19620000  1
  C  C145  1  0.42500000  0.13780000  0.22090000  1
  C  C146  1  0.48400000  0.16570000  0.25130000  1
  C  C147  1  0.54820000  0.12460000  0.28360000  1
  C  C148  1  0.21500000  0.50550000  0.27980000  1
  C  C149  1  0.19050000  0.50830000  0.32960000  1
  C  C150  1  0.09900000  0.51500000  0.35130000  1
  C  C151  1  0.09400000  0.52100000  0.40040000  1
  C  C152  1  0.18800000  0.50250000  0.41800000  1
  C  C153  1  0.20800000  0.49940000  0.46830000  1
  C  C154  1  0.33840000  0.30820000  0.69830000  1
  C  C155  1  0.36740000  0.24510000  0.72500000  1
  C  C156  1  0.34100000  0.18510000  0.71350000  1
  C  C157  1  0.38700000  0.13240000  0.74060000  1
  C  C158  1  0.44810000  0.15800000  0.77520000  1
  C  C159  1  0.51270000  0.11800000  0.80480000  1
  C  C160  1  0.31660000  0.31420000  0.54210000  1
  C  C161  1  0.35200000  0.24640000  0.52260000  1
  C  C162  1  0.32700000  0.18310000  0.53380000  1
  C  C163  1  0.38300000  0.13210000  0.50990000  1
  C  C164  1  0.44500000  0.16060000  0.47760000  1
  C  C165  1  0.51210000  0.12380000  0.44610000  1
  C  C166  1  0.14670000  0.68510000  0.55500000  1
  C  C167  1  0.11000000  0.75480000  0.53450000  1
  C  C168  1  0.15000000  0.81740000  0.54470000  1
  C  C169  1  0.09100000  0.86750000  0.52530000  1
  C  C170  1  0.02150000  0.84080000  0.49370000  1
  C  C171  1  0.95290000  0.88120000  0.46150000  1
  C  C172  1  0.16750000  0.68450000  0.70060000  1
  C  C173  1  0.11800000  0.74770000  0.71400000  1
  C  C174  1  0.13500000  0.81110000  0.69620000  1
  C  C175  1  0.07500000  0.86220000  0.72090000  1
  C  C176  1  0.01600000  0.83430000  0.75130000  1
  C  C177  1  0.95180000  0.87540000  0.78360000  1
  C  C178  1  0.28500000  0.49450000  0.77980000  1
  C  C179  1  0.30950000  0.49170000  0.82960000  1
  C  C180  1  0.40100000  0.48500000  0.85130000  1
  C  C181  1  0.40600000  0.47900000  0.90040000  1
  C  C182  1  0.31200000  0.49750000  0.91800000  1
  C  C183  1  0.29200000  0.50060000  0.96830000  1
  S  S184  1  0.54400000  0.74390000  0.73100000  1
  S  S185  1  0.56300000  0.74790000  0.02310000  1
  S  S186  1  0.97840000  0.25540000  0.00660000  1
  S  S187  1  0.97140000  0.25090000  0.74140000  1
  S  S188  1  0.77290000  0.00860000  0.62460000  1
  S  S189  1  0.95600000  0.25610000  0.23100000  1
  S  S190  1  0.93700000  0.25210000  0.52310000  1
  S  S191  1  0.52160000  0.74460000  0.50660000  1
  S  S192  1  0.52860000  0.74910000  0.24140000  1
  S  S193  1  0.72710000  0.99140000  0.12460000  1
  S  S194  1  0.04400000  0.75610000  0.26900000  1
  S  S195  1  0.06300000  0.75210000  0.97690000  1
  S  S196  1  0.47840000  0.24460000  0.99340000  1
  S  S197  1  0.47140000  0.24910000  0.25860000  1
  S  S198  1  0.27290000  0.49140000  0.37540000  1
  S  S199  1  0.45600000  0.24390000  0.76900000  1
  S  S200  1  0.43700000  0.24790000  0.47690000  1
  S  S201  1  0.02160000  0.75540000  0.49340000  1
  S  S202  1  0.02860000  0.75090000  0.75860000  1
  S  S203  1  0.22710000  0.50860000  0.87540000  1
  O  O204  1  0.63670000  0.90210000  0.88110000  1
  O  O205  1  0.78300000  0.94660000  0.92640000  1
  O  O206  1  0.92170000  0.96550000  0.86620000  1
  O  O207  1  0.76440000  0.94420000  0.82200000  1
  O  O208  1  0.70370000  0.06380000  0.80640000  1
  O  O209  1  0.62010000  0.02640000  0.87970000  1
  O  O210  1  0.73360000  0.06550000  0.94430000  1
  O  O211  1  0.83480000  0.07350000  0.87000000  1
  O  O212  1  0.74810000  0.80760000  0.92530000  1
  O  O213  1  0.65310000  0.86430000  0.97370000  1
  O  O214  1  0.43530000  0.65610000  0.08300000  1
  O  O215  1  0.48330000  0.55980000  0.04470000  1
  O  O216  1  0.08880000  0.34290000  0.68170000  1
  O  O217  1  0.06600000  0.43370000  0.72810000  1
  O  O218  1  0.72640000  0.80130000  0.82870000  1
  O  O219  1  0.61150000  0.86250000  0.78860000  1
  O  O220  1  0.80170000  0.01250000  0.73270000  1
  O  O221  1  0.64090000  0.97760000  0.74300000  1
  O  O222  1  0.63570000  0.98350000  0.50690000  1
  O  O223  1  0.79460000  0.01870000  0.51800000  1
  O  O224  1  0.48960000  0.55500000  0.69930000  1
  O  O225  1  0.43260000  0.65070000  0.66530000  1
  O  O226  1  0.04930000  0.44480000  0.02850000  1
  O  O227  1  0.08480000  0.35010000  0.07050000  1
  O  O228  1  0.89770000  0.13500000  0.95510000  1
  O  O229  1  0.77910000  0.19090000  0.91920000  1
  O  O230  1  0.86930000  0.13090000  0.78050000  1
  O  O231  1  0.76570000  0.19270000  0.82810000  1
  O  O232  1  0.86330000  0.09790000  0.38110000  1
  O  O233  1  0.71700000  0.05340000  0.42640000  1
  O  O234  1  0.57830000  0.03450000  0.36620000  1
  O  O235  1  0.73560000  0.05580000  0.32200000  1
  O  O236  1  0.79630000  0.93620000  0.30640000  1
  O  O237  1  0.87990000  0.97360000  0.37970000  1
  O  O238  1  0.76640000  0.93450000  0.44430000  1
  O  O239  1  0.66520000  0.92650000  0.37000000  1
  O  O240  1  0.75190000  0.19240000  0.42530000  1
  O  O241  1  0.84690000  0.13570000  0.47370000  1
  O  O242  1  0.06470000  0.34390000  0.58300000  1
  O  O243  1  0.01670000  0.44020000  0.54470000  1
  O  O244  1  0.41120000  0.65710000  0.18170000  1
  O  O245  1  0.43400000  0.56630000  0.22810000  1
  O  O246  1  0.77360000  0.19870000  0.32870000  1
  O  O247  1  0.88850000  0.13750000  0.28860000  1
  O  O248  1  0.69830000  0.98750000  0.23270000  1
  O  O249  1  0.85910000  0.02240000  0.24300000  1
  O  O250  1  0.86430000  0.01650000  0.00690000  1
  O  O251  1  0.70540000  0.98130000  0.01800000  1
  O  O252  1  0.01040000  0.44500000  0.19930000  1
  O  O253  1  0.06740000  0.34930000  0.16530000  1
  O  O254  1  0.45070000  0.55520000  0.52850000  1
  O  O255  1  0.41520000  0.64990000  0.57050000  1
  O  O256  1  0.60230000  0.86500000  0.45510000  1
  O  O257  1  0.72090000  0.80910000  0.41920000  1
  O  O258  1  0.63070000  0.86910000  0.28050000  1
  O  O259  1  0.73430000  0.80730000  0.32810000  1
  O  O260  1  0.13670000  0.59790000  0.11890000  1
  O  O261  1  0.28300000  0.55340000  0.07360000  1
  O  O262  1  0.42170000  0.53450000  0.13380000  1
  O  O263  1  0.26440000  0.55580000  0.17800000  1
  O  O264  1  0.20370000  0.43620000  0.19360000  1
  O  O265  1  0.12010000  0.47360000  0.12030000  1
  O  O266  1  0.23360000  0.43450000  0.05570000  1
  O  O267  1  0.33480000  0.42650000  0.13000000  1
  O  O268  1  0.24810000  0.69240000  0.07470000  1
  O  O269  1  0.15310000  0.63570000  0.02630000  1
  O  O270  1  0.93530000  0.84390000  0.91700000  1
  O  O271  1  0.98330000  0.94020000  0.95530000  1
  O  O272  1  0.58880000  0.15710000  0.31830000  1
  O  O273  1  0.56600000  0.06630000  0.27190000  1
  O  O274  1  0.22640000  0.69870000  0.17130000  1
  O  O275  1  0.11150000  0.63750000  0.21140000  1
  O  O276  1  0.30170000  0.48750000  0.26730000  1
  O  O277  1  0.14090000  0.52240000  0.25700000  1
  O  O278  1  0.13570000  0.51650000  0.49310000  1
  O  O279  1  0.29460000  0.48130000  0.48200000  1
  O  O280  1  0.98960000  0.94500000  0.30070000  1
  O  O281  1  0.93260000  0.84930000  0.33470000  1
  O  O282  1  0.54930000  0.05520000  0.97150000  1
  O  O283  1  0.58480000  0.14990000  0.92950000  1
  O  O284  1  0.39770000  0.36500000  0.04490000  1
  O  O285  1  0.27910000  0.30910000  0.08080000  1
  O  O286  1  0.36930000  0.36910000  0.21950000  1
  O  O287  1  0.26570000  0.30730000  0.17190000  1
  O  O288  1  0.36330000  0.40210000  0.61890000  1
  O  O289  1  0.21700000  0.44660000  0.57360000  1
  O  O290  1  0.07830000  0.46550000  0.63380000  1
  O  O291  1  0.23560000  0.44420000  0.67800000  1
  O  O292  1  0.29630000  0.56380000  0.69360000  1
  O  O293  1  0.37990000  0.52640000  0.62030000  1
  O  O294  1  0.26640000  0.56550000  0.55570000  1
  O  O295  1  0.16520000  0.57350000  0.63000000  1
  O  O296  1  0.25190000  0.30760000  0.57470000  1
  O  O297  1  0.34690000  0.36430000  0.52630000  1
  O  O298  1  0.56470000  0.15610000  0.41700000  1
  O  O299  1  0.51670000  0.05980000  0.45530000  1
  O  O300  1  0.91120000  0.84290000  0.81830000  1
  O  O301  1  0.93400000  0.93370000  0.77190000  1
  O  O302  1  0.27360000  0.30130000  0.67130000  1
  O  O303  1  0.38850000  0.36250000  0.71140000  1
  O  O304  1  0.19830000  0.51250000  0.76730000  1
  O  O305  1  0.35910000  0.47760000  0.75700000  1
  O  O306  1  0.36430000  0.48350000  0.99310000  1
  O  O307  1  0.20540000  0.51870000  0.98200000  1
  O  O308  1  0.51040000  0.05500000  0.80070000  1
  O  O309  1  0.56740000  0.15070000  0.83470000  1
  O  O310  1  0.95070000  0.94480000  0.47150000  1
  O  O311  1  0.91520000  0.85010000  0.42950000  1
  O  O312  1  0.10230000  0.63500000  0.54490000  1
  O  O313  1  0.22090000  0.69090000  0.58080000  1
  O  O314  1  0.13070000  0.63090000  0.71950000  1
  O  O315  1  0.23430000  0.69270000  0.67190000  1
