# generated using pymatgen
data_Zr3H18C36(N3O8)2
_symmetry_space_group_name_H-M   'P 1'
_cell_length_a   18.77085661
_cell_length_b   18.77085661
_cell_length_c   18.77085661
_cell_angle_alpha   60.00000000
_cell_angle_beta   60.00000000
_cell_angle_gamma   60.00000000
_symmetry_Int_Tables_number   1
_chemical_formula_structural   Zr3H18C36(N3O8)2
_chemical_formula_sum   'Zr6 H36 C72 N12 O32'
_cell_volume   4676.67595483
_cell_formula_units_Z   2
loop_
 _symmetry_equiv_pos_site_id
 _symmetry_equiv_pos_as_xyz
  1  'x, y, z'
loop_
 _atom_site_type_symbol
 _atom_site_label
 _atom_site_symmetry_multiplicity
 _atom_site_fract_x
 _atom_site_fract_y
 _atom_site_fract_z
 _atom_site_occupancy
  C  C0  1  0.49790000  0.26390000  0.73610000  1
  C  C1  1  0.50110000  0.18350000  0.81650000  1
  C  C2  1  0.43360000  0.14780000  0.85220000  1
  C  C3  1  0.56450000  0.14770000  0.85230000  1
  C  C4  1  0.56470000  0.07430000  0.92570000  1
  C  C5  1  0.50210000  0.03890000  0.96110000  1
  C  C6  1  0.50210000  0.73610000  0.26390000  1
  C  C7  1  0.49890000  0.81650000  0.18350000  1
  C  C8  1  0.56640000  0.85220000  0.14780000  1
  C  C9  1  0.43550000  0.85230000  0.14770000  1
  C  C10  1  0.43530000  0.92570000  0.07430000  1
  C  C11  1  0.49790000  0.96110000  0.03890000  1
  C  C12  1  0.73610000  0.50210000  0.49790000  1
  C  C13  1  0.81650000  0.49890000  0.50110000  1
  C  C14  1  0.85220000  0.56640000  0.43360000  1
  C  C15  1  0.85230000  0.43550000  0.56450000  1
  C  C16  1  0.92570000  0.43530000  0.56470000  1
  C  C17  1  0.96110000  0.49790000  0.50210000  1
  C  C18  1  0.26390000  0.49790000  0.50210000  1
  C  C19  1  0.18350000  0.50110000  0.49890000  1
  C  C20  1  0.14780000  0.43360000  0.56640000  1
  C  C21  1  0.14770000  0.56450000  0.43550000  1
  C  C22  1  0.07430000  0.56470000  0.43530000  1
  C  C23  1  0.03890000  0.50210000  0.49790000  1
  C  C24  1  0.26390000  0.73610000  0.49790000  1
  C  C25  1  0.18350000  0.81650000  0.50110000  1
  C  C26  1  0.14780000  0.85220000  0.43360000  1
  C  C27  1  0.14770000  0.85230000  0.56450000  1
  C  C28  1  0.07430000  0.92570000  0.56470000  1
  C  C29  1  0.03890000  0.96110000  0.50210000  1
  C  C30  1  0.73610000  0.26390000  0.50210000  1
  C  C31  1  0.81650000  0.18350000  0.49890000  1
  C  C32  1  0.85220000  0.14780000  0.56640000  1
  C  C33  1  0.85230000  0.14770000  0.43550000  1
  C  C34  1  0.92570000  0.07430000  0.43530000  1
  C  C35  1  0.96110000  0.03890000  0.49790000  1
  C  C36  1  0.50210000  0.49790000  0.73610000  1
  C  C37  1  0.49890000  0.50110000  0.81650000  1
  C  C38  1  0.56640000  0.43360000  0.85220000  1
  C  C39  1  0.43550000  0.56450000  0.85230000  1
  C  C40  1  0.43530000  0.56470000  0.92570000  1
  C  C41  1  0.49790000  0.50210000  0.96110000  1
  C  C42  1  0.49790000  0.50210000  0.26390000  1
  C  C43  1  0.50110000  0.49890000  0.18350000  1
  C  C44  1  0.43360000  0.56640000  0.14780000  1
  C  C45  1  0.56450000  0.43550000  0.14770000  1
  C  C46  1  0.56470000  0.43530000  0.07430000  1
  C  C47  1  0.50210000  0.49790000  0.03890000  1
  C  C48  1  0.73610000  0.49790000  0.26390000  1
  C  C49  1  0.81650000  0.50110000  0.18350000  1
  C  C50  1  0.85220000  0.43360000  0.14780000  1
  C  C51  1  0.85230000  0.56450000  0.14770000  1
  C  C52  1  0.92570000  0.56470000  0.07430000  1
  C  C53  1  0.96110000  0.50210000  0.03890000  1
  C  C54  1  0.26390000  0.50210000  0.73610000  1
  C  C55  1  0.18350000  0.49890000  0.81650000  1
  C  C56  1  0.14780000  0.56640000  0.85220000  1
  C  C57  1  0.14770000  0.43550000  0.85230000  1
  C  C58  1  0.07430000  0.43530000  0.92570000  1
  C  C59  1  0.03890000  0.49790000  0.96110000  1
  C  C60  1  0.49790000  0.73610000  0.50210000  1
  C  C61  1  0.50110000  0.81650000  0.49890000  1
  C  C62  1  0.43360000  0.85220000  0.56640000  1
  C  C63  1  0.56450000  0.85230000  0.43550000  1
  C  C64  1  0.56470000  0.92570000  0.43530000  1
  C  C65  1  0.50210000  0.96110000  0.49790000  1
  C  C66  1  0.50210000  0.26390000  0.49790000  1
  C  C67  1  0.49890000  0.18350000  0.50110000  1
  C  C68  1  0.56640000  0.14780000  0.43360000  1
  C  C69  1  0.43550000  0.14770000  0.56450000  1
  C  C70  1  0.43530000  0.07430000  0.56470000  1
  C  C71  1  0.49790000  0.03890000  0.50210000  1
  H  H72  1  0.39100000  0.17300000  0.82700000  1
  H  H73  1  0.60730000  0.17270000  0.82730000  1
  H  H74  1  0.60750000  0.04950000  0.95050000  1
  H  H75  1  0.60900000  0.82700000  0.17300000  1
  H  H76  1  0.39270000  0.82730000  0.17270000  1
  H  H77  1  0.39250000  0.95050000  0.04950000  1
  H  H78  1  0.82700000  0.60900000  0.39100000  1
  H  H79  1  0.82730000  0.39270000  0.60730000  1
  H  H80  1  0.95050000  0.39250000  0.60750000  1
  H  H81  1  0.17300000  0.39100000  0.60900000  1
  H  H82  1  0.17270000  0.60730000  0.39270000  1
  H  H83  1  0.04950000  0.60750000  0.39250000  1
  H  H84  1  0.17300000  0.82700000  0.39100000  1
  H  H85  1  0.17270000  0.82730000  0.60730000  1
  H  H86  1  0.04950000  0.95050000  0.60750000  1
  H  H87  1  0.82700000  0.17300000  0.60900000  1
  H  H88  1  0.82730000  0.17270000  0.39270000  1
  H  H89  1  0.95050000  0.04950000  0.39250000  1
  H  H90  1  0.60900000  0.39100000  0.82700000  1
  H  H91  1  0.39270000  0.60730000  0.82730000  1
  H  H92  1  0.39250000  0.60750000  0.95050000  1
  H  H93  1  0.39100000  0.60900000  0.17300000  1
  H  H94  1  0.60730000  0.39270000  0.17270000  1
  H  H95  1  0.60750000  0.39250000  0.04950000  1
  H  H96  1  0.82700000  0.39100000  0.17300000  1
  H  H97  1  0.82730000  0.60730000  0.17270000  1
  H  H98  1  0.95050000  0.60750000  0.04950000  1
  H  H99  1  0.17300000  0.60900000  0.82700000  1
  H  H100  1  0.17270000  0.39270000  0.82730000  1
  H  H101  1  0.04950000  0.39250000  0.95050000  1
  H  H102  1  0.39100000  0.82700000  0.60900000  1
  H  H103  1  0.60730000  0.82730000  0.39270000  1
  H  H104  1  0.60750000  0.95050000  0.39250000  1
  H  H105  1  0.60900000  0.17300000  0.39100000  1
  H  H106  1  0.39270000  0.17270000  0.60730000  1
  H  H107  1  0.39250000  0.04950000  0.60750000  1
  N  N108  1  0.43470000  0.07410000  0.92590000  1
  N  N109  1  0.56530000  0.92590000  0.07410000  1
  N  N110  1  0.92590000  0.56530000  0.43470000  1
  N  N111  1  0.07410000  0.43470000  0.56530000  1
  N  N112  1  0.07410000  0.92590000  0.43470000  1
  N  N113  1  0.92590000  0.07410000  0.56530000  1
  N  N114  1  0.56530000  0.43470000  0.92590000  1
  N  N115  1  0.43470000  0.56530000  0.07410000  1
  N  N116  1  0.92590000  0.43470000  0.07410000  1
  N  N117  1  0.07410000  0.56530000  0.92590000  1
  N  N118  1  0.43470000  0.92590000  0.56530000  1
  N  N119  1  0.56530000  0.07410000  0.43470000  1
  O  O120  1  0.43290000  0.29270000  0.70730000  1
  O  O121  1  0.56590000  0.29250000  0.70750000  1
  O  O122  1  0.56710000  0.70730000  0.29270000  1
  O  O123  1  0.43410000  0.70750000  0.29250000  1
  O  O124  1  0.70730000  0.56710000  0.43290000  1
  O  O125  1  0.70750000  0.43410000  0.56590000  1
  O  O126  1  0.29270000  0.43290000  0.56710000  1
  O  O127  1  0.29250000  0.56590000  0.43410000  1
  O  O128  1  0.29270000  0.70730000  0.43290000  1
  O  O129  1  0.29250000  0.70750000  0.56590000  1
  O  O130  1  0.70730000  0.29270000  0.56710000  1
  O  O131  1  0.70750000  0.29250000  0.43410000  1
  O  O132  1  0.56710000  0.43290000  0.70730000  1
  O  O133  1  0.43410000  0.56590000  0.70750000  1
  O  O134  1  0.43290000  0.56710000  0.29270000  1
  O  O135  1  0.56590000  0.43410000  0.29250000  1
  O  O136  1  0.70730000  0.43290000  0.29270000  1
  O  O137  1  0.70750000  0.56590000  0.29250000  1
  O  O138  1  0.29270000  0.56710000  0.70730000  1
  O  O139  1  0.29250000  0.43410000  0.70750000  1
  O  O140  1  0.43290000  0.70730000  0.56710000  1
  O  O141  1  0.56590000  0.70750000  0.43410000  1
  O  O142  1  0.56710000  0.29270000  0.43290000  1
  O  O143  1  0.43410000  0.29250000  0.56590000  1
  O  O144  1  0.36110000  0.54630000  0.54630000  1
  O  O145  1  0.54630000  0.54630000  0.54630000  1
  O  O146  1  0.54630000  0.54630000  0.36110000  1
  O  O147  1  0.54630000  0.36110000  0.54630000  1
  O  O148  1  0.63890000  0.45370000  0.45370000  1
  O  O149  1  0.45370000  0.45370000  0.45370000  1
  O  O150  1  0.45370000  0.45370000  0.63890000  1
  O  O151  1  0.45370000  0.63890000  0.45370000  1
  Zr  Zr152  1  0.40659000  0.40659000  0.59341000  1
  Zr  Zr153  1  0.59341000  0.59341000  0.40659000  1
  Zr  Zr154  1  0.40659000  0.59341000  0.40659000  1
  Zr  Zr155  1  0.59341000  0.40659000  0.59341000  1
  Zr  Zr156  1  0.59341000  0.40659000  0.40659000  1
  Zr  Zr157  1  0.40659000  0.59341000  0.59341000  1
