# generated using pymatgen
data_Zr3SiH20(C7O4)4
_symmetry_space_group_name_H-M   'P 1'
_cell_length_a   15.22800000
_cell_length_b   15.22800000
_cell_length_c   17.97710801
_cell_angle_alpha   115.05819953
_cell_angle_beta   115.05819953
_cell_angle_gamma   90.00000000
_symmetry_Int_Tables_number   1
_chemical_formula_structural   Zr3SiH20(C7O4)4
_chemical_formula_sum   'Zr6 Si2 H40 C56 O32'
_cell_volume   3338.20105567
_cell_formula_units_Z   2
loop_
 _symmetry_equiv_pos_site_id
 _symmetry_equiv_pos_as_xyz
  1  'x, y, z'
loop_
 _atom_site_type_symbol
 _atom_site_label
 _atom_site_symmetry_multiplicity
 _atom_site_fract_x
 _atom_site_fract_y
 _atom_site_fract_z
 _atom_site_occupancy
  C  C0  1  0.95857000  0.27277000  0.56014000  1
  C  C1  1  0.05798000  0.31548000  0.62136000  1
  C  C2  1  0.08598000  0.40029000  0.70506000  1
  C  C3  1  0.01271000  0.44291000  0.72242000  1
  C  C4  1  0.91411000  0.40051000  0.65942000  1
  C  C5  1  0.88483000  0.31298000  0.57770000  1
  C  C6  1  0.19181000  0.43949000  0.77636000  1
  C  C7  1  0.60157000  0.28737000  0.56014000  1
  C  C8  1  0.56338000  0.30588000  0.62136000  1
  C  C9  1  0.61908000  0.30477000  0.70506000  1
  C  C10  1  0.70971000  0.27951000  0.72242000  1
  C  C11  1  0.74531000  0.25891000  0.65942000  1
  C  C12  1  0.69287000  0.26472000  0.57770000  1
  C  C13  1  0.58455000  0.33687000  0.77636000  1
  C  C14  1  0.28737000  0.95857000  0.56014000  1
  C  C15  1  0.30588000  0.05798000  0.62136000  1
  C  C16  1  0.30477000  0.08598000  0.70506000  1
  C  C17  1  0.27951000  0.01271000  0.72242000  1
  C  C18  1  0.25891000  0.91411000  0.65942000  1
  C  C19  1  0.26472000  0.88483000  0.57770000  1
  C  C20  1  0.33687000  0.19181000  0.77636000  1
  C  C21  1  0.27277000  0.60157000  0.56014000  1
  C  C22  1  0.31548000  0.56338000  0.62136000  1
  C  C23  1  0.40029000  0.61908000  0.70506000  1
  C  C24  1  0.44291000  0.70971000  0.72242000  1
  C  C25  1  0.40051000  0.74531000  0.65942000  1
  C  C26  1  0.31298000  0.69287000  0.57770000  1
  C  C27  1  0.43949000  0.58455000  0.77636000  1
  C  C28  1  0.04143000  0.72723000  0.43986000  1
  C  C29  1  0.94202000  0.68452000  0.37864000  1
  C  C30  1  0.91402000  0.59971000  0.29494000  1
  C  C31  1  0.98729000  0.55709000  0.27758000  1
  C  C32  1  0.08589000  0.59949000  0.34058000  1
  C  C33  1  0.11517000  0.68702000  0.42230000  1
  C  C34  1  0.80819000  0.56051000  0.22364000  1
  C  C35  1  0.39843000  0.71263000  0.43986000  1
  C  C36  1  0.43662000  0.69412000  0.37864000  1
  C  C37  1  0.38092000  0.69523000  0.29494000  1
  C  C38  1  0.29029000  0.72049000  0.27758000  1
  C  C39  1  0.25469000  0.74109000  0.34058000  1
  C  C40  1  0.30713000  0.73528000  0.42230000  1
  C  C41  1  0.41545000  0.66313000  0.22364000  1
  C  C42  1  0.71263000  0.04143000  0.43986000  1
  C  C43  1  0.69412000  0.94202000  0.37864000  1
  C  C44  1  0.69523000  0.91402000  0.29494000  1
  C  C45  1  0.72049000  0.98729000  0.27758000  1
  C  C46  1  0.74109000  0.08589000  0.34058000  1
  C  C47  1  0.73528000  0.11517000  0.42230000  1
  C  C48  1  0.66313000  0.80819000  0.22364000  1
  C  C49  1  0.72723000  0.39843000  0.43986000  1
  C  C50  1  0.68452000  0.43662000  0.37864000  1
  C  C51  1  0.59971000  0.38092000  0.29494000  1
  C  C52  1  0.55709000  0.29029000  0.27758000  1
  C  C53  1  0.59949000  0.25469000  0.34058000  1
  C  C54  1  0.68702000  0.30713000  0.42230000  1
  C  C55  1  0.56051000  0.41545000  0.22364000  1
  H  H56  1  0.93575000  0.20170000  0.49242000  1
  H  H57  1  0.11717000  0.28103000  0.60314000  1
  H  H58  1  0.03333000  0.51406000  0.78952000  1
  H  H59  1  0.85398000  0.43747000  0.67382000  1
  H  H60  1  0.34885000  0.70806000  0.00000000  1
  H  H61  1  0.20055000  0.40779000  0.00044000  1
  H  H62  1  0.55667000  0.29072000  0.49242000  1
  H  H63  1  0.48597000  0.32211000  0.60314000  1
  H  H64  1  0.75619000  0.27546000  0.78952000  1
  H  H65  1  0.81984000  0.23635000  0.67382000  1
  H  H66  1  0.65115000  0.29194000  0.00000000  1
  H  H67  1  0.79989000  0.59265000  0.00044000  1
  H  H68  1  0.29072000  0.93575000  0.49242000  1
  H  H69  1  0.32211000  0.11717000  0.60314000  1
  H  H70  1  0.27546000  0.03333000  0.78952000  1
  H  H71  1  0.23635000  0.85398000  0.67382000  1
  H  H72  1  0.29194000  0.34885000  1.00000000  1
  H  H73  1  0.59265000  0.20055000  0.00044000  1
  H  H74  1  0.20170000  0.55667000  0.49242000  1
  H  H75  1  0.28103000  0.48597000  0.60314000  1
  H  H76  1  0.51406000  0.75619000  0.78952000  1
  H  H77  1  0.43747000  0.81984000  0.67382000  1
  H  H78  1  0.70806000  0.65115000  0.00000000  1
  H  H79  1  0.40779000  0.79989000  0.00044000  1
  H  H80  1  0.06425000  0.79830000  0.50758000  1
  H  H81  1  0.88283000  0.71897000  0.39686000  1
  H  H82  1  0.96667000  0.48594000  0.21048000  1
  H  H83  1  0.14602000  0.56253000  0.32618000  1
  H  H84  1  0.44333000  0.70928000  0.50758000  1
  H  H85  1  0.51403000  0.67789000  0.39686000  1
  H  H86  1  0.24381000  0.72454000  0.21048000  1
  H  H87  1  0.18016000  0.76365000  0.32618000  1
  H  H88  1  0.70928000  0.06425000  0.50758000  1
  H  H89  1  0.67789000  0.88283000  0.39686000  1
  H  H90  1  0.72454000  0.96667000  0.21048000  1
  H  H91  1  0.76365000  0.14602000  0.32618000  1
  H  H92  1  0.79830000  0.44333000  0.50758000  1
  H  H93  1  0.71897000  0.51403000  0.39686000  1
  H  H94  1  0.48594000  0.24381000  0.21048000  1
  H  H95  1  0.56253000  0.18016000  0.32618000  1
  O  O96  1  0.21042000  0.49791000  0.85866000  1
  O  O97  1  0.25674000  0.40889000  0.75032000  1
  O  O98  1  0.43816000  0.48762000  0.08276000  1
  O  O99  1  0.64824000  0.36075000  0.85866000  1
  O  O100  1  0.49358000  0.34143000  0.75032000  1
  O  O101  1  0.64460000  0.59514000  0.08276000  1
  O  O102  1  0.36075000  0.21042000  0.85866000  1
  O  O103  1  0.34143000  0.25674000  0.75032000  1
  O  O104  1  0.59514000  0.43816000  0.08276000  1
  O  O105  1  0.49791000  0.64824000  0.85866000  1
  O  O106  1  0.40889000  0.49358000  0.75032000  1
  O  O107  1  0.48762000  0.64460000  0.08276000  1
  O  O108  1  0.78958000  0.50209000  0.14134000  1
  O  O109  1  0.74326000  0.59111000  0.24968000  1
  O  O110  1  0.56184000  0.51238000  0.91724000  1
  O  O111  1  0.35176000  0.63925000  0.14134000  1
  O  O112  1  0.50642000  0.65857000  0.24968000  1
  O  O113  1  0.35540000  0.40486000  0.91724000  1
  O  O114  1  0.63925000  0.78958000  0.14134000  1
  O  O115  1  0.65857000  0.74326000  0.24968000  1
  O  O116  1  0.40486000  0.56184000  0.91724000  1
  O  O117  1  0.50209000  0.35176000  0.14134000  1
  O  O118  1  0.59111000  0.50642000  0.24968000  1
  O  O119  1  0.51238000  0.35540000  0.91724000  1
  O  O120  1  0.21670000  0.47860000  1.00000000  1
  O  O121  1  0.28170000  0.67970000  0.00000000  1
  O  O122  1  0.78330000  0.52140000  0.00000000  1
  O  O123  1  0.71830000  0.32030000  1.00000000  1
  O  O124  1  0.52140000  0.21670000  0.00000000  1
  O  O125  1  0.32030000  0.28170000  1.00000000  1
  O  O126  1  0.47860000  0.78330000  0.00000000  1
  O  O127  1  0.67970000  0.71830000  0.00000000  1
  Si  Si128  1  0.75000000  0.25000000  0.50000000  1
  Si  Si129  1  0.25000000  0.75000000  0.50000000  1
  Zr  Zr130  1  0.34321000  0.55007000  1.00000000  1
  Zr  Zr131  1  0.65679000  0.44993000  1.00000000  1
  Zr  Zr132  1  0.44993000  0.34321000  1.00000000  1
  Zr  Zr133  1  0.55007000  0.65679000  0.00000000  1
  Zr  Zr134  1  0.41456000  0.41456000  0.82912000  1
  Zr  Zr135  1  0.58543500  0.58543500  0.17087000  1
