# generated using pymatgen
data_Zr3Ni2H44C24(NO2)8
_symmetry_space_group_name_H-M   'P 1'
_cell_length_a   15.31042064
_cell_length_b   15.31042064
_cell_length_c   15.31042064
_cell_angle_alpha   99.37176904
_cell_angle_beta   114.74497456
_cell_angle_gamma   114.74497456
_symmetry_Int_Tables_number   1
_chemical_formula_structural   Zr3Ni2H44C24(NO2)8
_chemical_formula_sum   'Zr6 Ni4 H88 C48 N16 O32'
_cell_volume   2700.04218055
_cell_formula_units_Z   2
loop_
 _symmetry_equiv_pos_site_id
 _symmetry_equiv_pos_as_xyz
  1  'x, y, z'
loop_
 _atom_site_type_symbol
 _atom_site_label
 _atom_site_symmetry_multiplicity
 _atom_site_fract_x
 _atom_site_fract_y
 _atom_site_fract_z
 _atom_site_occupancy
  C  C0  1  0.54250000  0.34900000  0.53750000  1
  C  C1  1  0.68660000  0.52050000  0.68710000  1
  C  C2  1  0.70660000  0.62160000  0.75220000  1
  C  C3  1  0.69730000  0.69400000  0.69530000  1
  C  C4  1  0.56530000  0.71800000  0.55730000  1
  C  C5  1  0.82380000  0.68260000  0.85440000  1
  C  C6  1  0.81150000  0.80650000  0.34900000  1
  C  C7  1  0.83340000  0.83390000  0.52050000  1
  C  C8  1  0.86940000  0.91500000  0.62160000  1
  C  C9  1  0.99870000  0.99670000  0.69400000  1
  C  C10  1  0.16070000  0.15270000  0.71800000  1
  C  C11  1  0.82820000  0.85880000  0.68260000  1
  C  C12  1  0.45750000  0.99500000  0.80650000  1
  C  C13  1  0.31340000  0.00050000  0.83390000  1
  C  C14  1  0.29340000  0.04560000  0.91500000  1
  C  C15  1  0.30270000  0.99800000  0.99670000  1
  C  C16  1  0.43470000  0.99200000  0.15270000  1
  C  C17  1  0.17620000  0.03060000  0.85880000  1
  C  C18  1  0.18850000  0.53750000  0.99500000  1
  C  C19  1  0.16660000  0.68710000  0.00050000  1
  C  C20  1  0.13060000  0.75220000  0.04560000  1
  C  C21  1  0.00130000  0.69530000  0.99800000  1
  C  C22  1  0.83930000  0.55730000  0.99200000  1
  C  C23  1  0.17180000  0.85440000  0.03060000  1
  C  C24  1  0.45750000  0.65100000  0.46250000  1
  C  C25  1  0.31340000  0.47950000  0.31290000  1
  C  C26  1  0.29340000  0.37840000  0.24780000  1
  C  C27  1  0.30270000  0.30600000  0.30470000  1
  C  C28  1  0.43470000  0.28200000  0.44270000  1
  C  C29  1  0.17620000  0.31740000  0.14560000  1
  C  C30  1  0.18850000  0.19350000  0.65100000  1
  C  C31  1  0.16660000  0.16610000  0.47950000  1
  C  C32  1  0.13060000  0.08500000  0.37840000  1
  C  C33  1  0.00130000  0.00330000  0.30600000  1
  C  C34  1  0.83930000  0.84730000  0.28200000  1
  C  C35  1  0.17180000  0.14120000  0.31740000  1
  C  C36  1  0.54250000  0.00500000  0.19350000  1
  C  C37  1  0.68660000  0.99950000  0.16610000  1
  C  C38  1  0.70660000  0.95440000  0.08500000  1
  C  C39  1  0.69730000  0.00200000  0.00330000  1
  C  C40  1  0.56530000  0.00800000  0.84730000  1
  C  C41  1  0.82380000  0.96940000  0.14120000  1
  C  C42  1  0.81150000  0.46250000  0.00500000  1
  C  C43  1  0.83340000  0.31290000  0.99950000  1
  C  C44  1  0.86940000  0.24780000  0.95440000  1
  C  C45  1  0.99870000  0.30470000  0.00200000  1
  C  C46  1  0.16070000  0.44270000  0.00800000  1
  C  C47  1  0.82820000  0.14560000  0.96940000  1
  H  H48  1  0.52100000  0.42800000  0.63700000  1
  H  H49  1  0.53440000  0.64470000  0.64710000  1
  H  H50  1  0.55220000  0.30600000  0.57820000  1
  H  H51  1  0.59770000  0.36500000  0.51470000  1
  H  H52  1  0.73320000  0.53710000  0.65630000  1
  H  H53  1  0.71100000  0.48700000  0.73400000  1
  H  H54  1  0.64750000  0.60100000  0.77050000  1
  H  H55  1  0.72770000  0.76400000  0.74770000  1
  H  H56  1  0.74360000  0.70400000  0.66360000  1
  H  H57  1  0.62190000  0.74100000  0.53690000  1
  H  H58  1  0.57910000  0.78100000  0.60410000  1
  H  H59  1  0.79100000  0.90700000  0.42800000  1
  H  H60  1  0.99760000  0.11030000  0.64470000  1
  H  H61  1  0.72780000  0.75380000  0.30600000  1
  H  H62  1  0.85030000  0.76730000  0.36500000  1
  H  H63  1  0.88080000  0.80390000  0.53710000  1
  H  H64  1  0.75300000  0.77600000  0.48700000  1
  H  H65  1  0.83050000  0.95350000  0.60100000  1
  H  H66  1  0.01630000  0.03630000  0.76400000  1
  H  H67  1  0.04040000  0.96040000  0.70400000  1
  H  H68  1  0.20410000  0.11910000  0.74100000  1
  H  H69  1  0.17690000  0.20190000  0.78100000  1
  H  H70  1  0.47900000  0.11600000  0.90700000  1
  H  H71  1  0.46560000  0.11270000  0.11030000  1
  H  H72  1  0.44780000  0.02600000  0.75380000  1
  H  H73  1  0.40230000  0.91700000  0.76730000  1
  H  H74  1  0.26680000  0.92310000  0.80390000  1
  H  H75  1  0.28900000  0.02300000  0.77600000  1
  H  H76  1  0.35250000  0.12300000  0.95350000  1
  H  H77  1  0.27230000  0.02000000  0.03630000  1
  H  H78  1  0.25640000  0.92000000  0.96040000  1
  H  H79  1  0.37810000  0.91500000  0.11910000  1
  H  H80  1  0.42090000  0.02500000  0.20190000  1
  H  H81  1  0.20900000  0.63700000  0.11600000  1
  H  H82  1  0.00240000  0.64710000  0.11270000  1
  H  H83  1  0.27220000  0.57820000  0.02600000  1
  H  H84  1  0.14970000  0.51470000  0.91700000  1
  H  H85  1  0.11920000  0.65630000  0.92310000  1
  H  H86  1  0.24700000  0.73400000  0.02300000  1
  H  H87  1  0.16950000  0.77050000  0.12300000  1
  H  H88  1  0.98370000  0.74770000  0.02000000  1
  H  H89  1  0.95960000  0.66360000  0.92000000  1
  H  H90  1  0.79590000  0.53690000  0.91500000  1
  H  H91  1  0.82310000  0.60410000  0.02500000  1
  H  H92  1  0.47900000  0.57200000  0.36300000  1
  H  H93  1  0.46560000  0.35530000  0.35290000  1
  H  H94  1  0.44780000  0.69400000  0.42180000  1
  H  H95  1  0.40230000  0.63500000  0.48530000  1
  H  H96  1  0.26680000  0.46290000  0.34370000  1
  H  H97  1  0.28900000  0.51300000  0.26600000  1
  H  H98  1  0.35250000  0.39900000  0.22950000  1
  H  H99  1  0.27230000  0.23600000  0.25230000  1
  H  H100  1  0.25640000  0.29600000  0.33640000  1
  H  H101  1  0.37810000  0.25900000  0.46310000  1
  H  H102  1  0.42090000  0.21900000  0.39590000  1
  H  H103  1  0.20900000  0.09300000  0.57200000  1
  H  H104  1  0.00240000  0.88970000  0.35530000  1
  H  H105  1  0.27220000  0.24620000  0.69400000  1
  H  H106  1  0.14970000  0.23270000  0.63500000  1
  H  H107  1  0.11920000  0.19610000  0.46290000  1
  H  H108  1  0.24700000  0.22400000  0.51300000  1
  H  H109  1  0.16950000  0.04650000  0.39900000  1
  H  H110  1  0.98370000  0.96370000  0.23600000  1
  H  H111  1  0.95960000  0.03960000  0.29600000  1
  H  H112  1  0.79590000  0.88090000  0.25900000  1
  H  H113  1  0.82310000  0.79810000  0.21900000  1
  H  H114  1  0.52100000  0.88400000  0.09300000  1
  H  H115  1  0.53440000  0.88730000  0.88970000  1
  H  H116  1  0.55220000  0.97400000  0.24620000  1
  H  H117  1  0.59770000  0.08300000  0.23270000  1
  H  H118  1  0.73320000  0.07690000  0.19610000  1
  H  H119  1  0.71100000  0.97700000  0.22400000  1
  H  H120  1  0.64750000  0.87700000  0.04650000  1
  H  H121  1  0.72770000  0.98000000  0.96370000  1
  H  H122  1  0.74360000  0.08000000  0.03960000  1
  H  H123  1  0.62190000  0.08500000  0.88090000  1
  H  H124  1  0.57910000  0.97500000  0.79810000  1
  H  H125  1  0.79100000  0.36300000  0.88400000  1
  H  H126  1  0.99760000  0.35290000  0.88730000  1
  H  H127  1  0.72780000  0.42180000  0.97400000  1
  H  H128  1  0.85030000  0.48530000  0.08300000  1
  H  H129  1  0.88080000  0.34370000  0.07690000  1
  H  H130  1  0.75300000  0.26600000  0.97700000  1
  H  H131  1  0.83050000  0.22950000  0.87700000  1
  H  H132  1  0.01630000  0.25230000  0.98000000  1
  H  H133  1  0.04040000  0.33640000  0.08000000  1
  H  H134  1  0.20410000  0.46310000  0.08500000  1
  H  H135  1  0.17690000  0.39590000  0.97500000  1
  N  N136  1  0.56530000  0.44700000  0.60230000  1
  N  N137  1  0.57720000  0.64900000  0.61220000  1
  N  N138  1  0.84470000  0.88170000  0.44700000  1
  N  N139  1  0.03680000  0.07180000  0.64900000  1
  N  N140  1  0.43470000  0.03700000  0.88170000  1
  N  N141  1  0.42280000  0.03500000  0.07180000  1
  N  N142  1  0.15530000  0.60230000  0.03700000  1
  N  N143  1  0.96320000  0.61220000  0.03500000  1
  N  N144  1  0.43470000  0.55300000  0.39770000  1
  N  N145  1  0.42280000  0.35100000  0.38780000  1
  N  N146  1  0.15530000  0.11830000  0.55300000  1
  N  N147  1  0.96320000  0.92820000  0.35100000  1
  N  N148  1  0.56530000  0.96300000  0.11830000  1
  N  N149  1  0.57720000  0.96500000  0.92820000  1
  N  N150  1  0.84470000  0.39770000  0.96300000  1
  N  N151  1  0.03680000  0.38780000  0.96500000  1
  Ni  Ni152  1  0.50000000  0.50000000  0.50000000  1
  Ni  Ni153  1  0.00000000  0.00000000  0.50000000  1
  Ni  Ni154  1  0.50000000  0.00000000  1.00000000  1
  Ni  Ni155  1  0.00000000  0.50000000  0.00000000  1
  O  O156  1  0.03100000  0.87600000  0.02500000  1
  O  O157  1  0.84170000  0.70150000  0.94520000  1
  O  O158  1  0.91260000  0.71800000  0.85260000  1
  O  O159  1  0.97100000  0.80900000  0.16200000  1
  O  O160  1  0.70700000  0.75400000  0.95300000  1
  O  O161  1  0.85100000  0.84500000  0.87600000  1
  O  O162  1  0.75630000  0.85980000  0.70150000  1
  O  O163  1  0.86540000  0.80540000  0.71800000  1
  O  O164  1  0.64700000  0.83800000  0.80900000  1
  O  O165  1  0.80100000  0.04700000  0.75400000  1
  O  O166  1  0.96900000  0.99400000  0.84500000  1
  O  O167  1  0.15830000  0.10350000  0.85980000  1
  O  O168  1  0.08740000  0.94000000  0.80540000  1
  O  O169  1  0.02900000  0.19100000  0.83800000  1
  O  O170  1  0.29300000  0.24600000  0.04700000  1
  O  O171  1  0.14900000  0.02500000  0.99400000  1
  O  O172  1  0.24370000  0.94520000  0.10350000  1
  O  O173  1  0.13460000  0.85260000  0.94000000  1
  O  O174  1  0.35300000  0.16200000  0.19100000  1
  O  O175  1  0.19900000  0.95300000  0.24600000  1
  O  O176  1  0.96900000  0.12400000  0.97500000  1
  O  O177  1  0.15830000  0.29850000  0.05480000  1
  O  O178  1  0.08740000  0.28200000  0.14740000  1
  O  O179  1  0.14900000  0.15500000  0.12400000  1
  O  O180  1  0.24370000  0.14020000  0.29850000  1
  O  O181  1  0.13460000  0.19460000  0.28200000  1
  O  O182  1  0.03100000  0.00600000  0.15500000  1
  O  O183  1  0.84170000  0.89650000  0.14020000  1
  O  O184  1  0.91260000  0.06000000  0.19460000  1
  O  O185  1  0.85100000  0.97500000  0.00600000  1
  O  O186  1  0.75630000  0.05480000  0.89650000  1
  O  O187  1  0.86540000  0.14740000  0.06000000  1
  Zr  Zr188  1  0.88570000  0.85490000  0.03080000  1
  Zr  Zr189  1  0.00000000  0.87660000  0.87660000  1
  Zr  Zr190  1  0.82410000  0.96920000  0.85490000  1
  Zr  Zr191  1  0.11430000  0.14510000  0.96920000  1
  Zr  Zr192  1  0.17590000  0.03080000  0.14510000  1
  Zr  Zr193  1  0.00000000  0.12340000  0.12340000  1
