# generated using pymatgen
data_Zr3Cu2H44C24(NO2)8
_symmetry_space_group_name_H-M   'P 1'
_cell_length_a   15.39018598
_cell_length_b   15.39018598
_cell_length_c   15.39018598
_cell_angle_alpha   100.39425600
_cell_angle_beta   114.19162667
_cell_angle_gamma   114.19162667
_symmetry_Int_Tables_number   1
_chemical_formula_structural   Zr3Cu2H44C24(NO2)8
_chemical_formula_sum   'Zr6 Cu4 H88 C48 N16 O32'
_cell_volume   2754.53881753
_cell_formula_units_Z   2
loop_
 _symmetry_equiv_pos_site_id
 _symmetry_equiv_pos_as_xyz
  1  'x, y, z'
loop_
 _atom_site_type_symbol
 _atom_site_label
 _atom_site_symmetry_multiplicity
 _atom_site_fract_x
 _atom_site_fract_y
 _atom_site_fract_z
 _atom_site_occupancy
  C  C0  1  0.54850000  0.35100000  0.54550000  1
  C  C1  1  0.68970000  0.52370000  0.69140000  1
  C  C2  1  0.71060000  0.62750000  0.75410000  1
  C  C3  1  0.69940000  0.69570000  0.69510000  1
  C  C4  1  0.56790000  0.71500000  0.55490000  1
  C  C5  1  0.82490000  0.68860000  0.85550000  1
  C  C6  1  0.80550000  0.80250000  0.35100000  1
  C  C7  1  0.83230000  0.83400000  0.52370000  1
  C  C8  1  0.87340000  0.91690000  0.62750000  1
  C  C9  1  0.00060000  0.99630000  0.69570000  1
  C  C10  1  0.16010000  0.14710000  0.71500000  1
  C  C11  1  0.83310000  0.86370000  0.68860000  1
  C  C12  1  0.45150000  0.99700000  0.80250000  1
  C  C13  1  0.31030000  0.00170000  0.83400000  1
  C  C14  1  0.28940000  0.04350000  0.91690000  1
  C  C15  1  0.30060000  0.99570000  0.99630000  1
  C  C16  1  0.43210000  0.98700000  0.14710000  1
  C  C17  1  0.17510000  0.03060000  0.86370000  1
  C  C18  1  0.19450000  0.54550000  0.99700000  1
  C  C19  1  0.16770000  0.69140000  0.00170000  1
  C  C20  1  0.12660000  0.75410000  0.04350000  1
  C  C21  1  0.99940000  0.69510000  0.99570000  1
  C  C22  1  0.83990000  0.55490000  0.98700000  1
  C  C23  1  0.16690000  0.85550000  0.03060000  1
  C  C24  1  0.45150000  0.64900000  0.45450000  1
  C  C25  1  0.31030000  0.47630000  0.30860000  1
  C  C26  1  0.28940000  0.37250000  0.24590000  1
  C  C27  1  0.30060000  0.30430000  0.30490000  1
  C  C28  1  0.43210000  0.28500000  0.44510000  1
  C  C29  1  0.17510000  0.31140000  0.14450000  1
  C  C30  1  0.19450000  0.19750000  0.64900000  1
  C  C31  1  0.16770000  0.16600000  0.47630000  1
  C  C32  1  0.12660000  0.08310000  0.37250000  1
  C  C33  1  0.99940000  0.00370000  0.30430000  1
  C  C34  1  0.83990000  0.85290000  0.28500000  1
  C  C35  1  0.16690000  0.13630000  0.31140000  1
  C  C36  1  0.54850000  0.00300000  0.19750000  1
  C  C37  1  0.68970000  0.99830000  0.16600000  1
  C  C38  1  0.71060000  0.95650000  0.08310000  1
  C  C39  1  0.69940000  0.00430000  0.00370000  1
  C  C40  1  0.56790000  0.01300000  0.85290000  1
  C  C41  1  0.82490000  0.96940000  0.13630000  1
  C  C42  1  0.80550000  0.45450000  0.00300000  1
  C  C43  1  0.83230000  0.30860000  0.99830000  1
  C  C44  1  0.87340000  0.24590000  0.95650000  1
  C  C45  1  0.00060000  0.30490000  0.00430000  1
  C  C46  1  0.16010000  0.44510000  0.01300000  1
  C  C47  1  0.83310000  0.14450000  0.96940000  1
  Cu  Cu48  1  0.50000000  0.50000000  0.50000000  1
  Cu  Cu49  1  0.00000000  0.00000000  0.50000000  1
  Cu  Cu50  1  0.50000000  0.00000000  0.00000000  1
  Cu  Cu51  1  0.00000000  0.50000000  0.00000000  1
  H  H52  1  0.52730000  0.43300000  0.64230000  1
  H  H53  1  0.53920000  0.64820000  0.64740000  1
  H  H54  1  0.55900000  0.31100000  0.58800000  1
  H  H55  1  0.60320000  0.36500000  0.52220000  1
  H  H56  1  0.73690000  0.53930000  0.66020000  1
  H  H57  1  0.71490000  0.49200000  0.73890000  1
  H  H58  1  0.65210000  0.60900000  0.77310000  1
  H  H59  1  0.73020000  0.76700000  0.74520000  1
  H  H60  1  0.74540000  0.70400000  0.66340000  1
  H  H61  1  0.62390000  0.73600000  0.53390000  1
  H  H62  1  0.58130000  0.78000000  0.60130000  1
  H  H63  1  0.79070000  0.90570000  0.43300000  1
  H  H64  1  0.00080000  0.10900000  0.64820000  1
  H  H65  1  0.72300000  0.75200000  0.31100000  1
  H  H66  1  0.84280000  0.76180000  0.36500000  1
  H  H67  1  0.87910000  0.80240000  0.53930000  1
  H  H68  1  0.75310000  0.77710000  0.49200000  1
  H  H69  1  0.83590000  0.95690000  0.60900000  1
  H  H70  1  0.02180000  0.03680000  0.76700000  1
  H  H71  1  0.04060000  0.95860000  0.70400000  1
  H  H72  1  0.20210000  0.11210000  0.73600000  1
  H  H73  1  0.17870000  0.19870000  0.78000000  1
  H  H74  1  0.47270000  0.11500000  0.90570000  1
  H  H75  1  0.46080000  0.10820000  0.10900000  1
  H  H76  1  0.44100000  0.02900000  0.75200000  1
  H  H77  1  0.39680000  0.91900000  0.76180000  1
  H  H78  1  0.26310000  0.92330000  0.80240000  1
  H  H79  1  0.28510000  0.02400000  0.77710000  1
  H  H80  1  0.34790000  0.12100000  0.95690000  1
  H  H81  1  0.26980000  0.01500000  0.03680000  1
  H  H82  1  0.25460000  0.91800000  0.95860000  1
  H  H83  1  0.37610000  0.91000000  0.11210000  1
  H  H84  1  0.41870000  0.02000000  0.19870000  1
  H  H85  1  0.20930000  0.64230000  0.11500000  1
  H  H86  1  0.99920000  0.64740000  0.10820000  1
  H  H87  1  0.27700000  0.58800000  0.02900000  1
  H  H88  1  0.15720000  0.52220000  0.91900000  1
  H  H89  1  0.12090000  0.66020000  0.92330000  1
  H  H90  1  0.24690000  0.73890000  0.02400000  1
  H  H91  1  0.16410000  0.77310000  0.12100000  1
  H  H92  1  0.97820000  0.74520000  0.01500000  1
  H  H93  1  0.95940000  0.66340000  0.91800000  1
  H  H94  1  0.79790000  0.53390000  0.91000000  1
  H  H95  1  0.82130000  0.60130000  0.02000000  1
  H  H96  1  0.47270000  0.56700000  0.35770000  1
  H  H97  1  0.46080000  0.35180000  0.35260000  1
  H  H98  1  0.44100000  0.68900000  0.41200000  1
  H  H99  1  0.39680000  0.63500000  0.47780000  1
  H  H100  1  0.26310000  0.46070000  0.33980000  1
  H  H101  1  0.28510000  0.50800000  0.26110000  1
  H  H102  1  0.34790000  0.39100000  0.22690000  1
  H  H103  1  0.26980000  0.23300000  0.25480000  1
  H  H104  1  0.25460000  0.29600000  0.33660000  1
  H  H105  1  0.37610000  0.26400000  0.46610000  1
  H  H106  1  0.41870000  0.22000000  0.39870000  1
  H  H107  1  0.20930000  0.09430000  0.56700000  1
  H  H108  1  0.99920000  0.89100000  0.35180000  1
  H  H109  1  0.27700000  0.24800000  0.68900000  1
  H  H110  1  0.15720000  0.23820000  0.63500000  1
  H  H111  1  0.12090000  0.19760000  0.46070000  1
  H  H112  1  0.24690000  0.22290000  0.50800000  1
  H  H113  1  0.16410000  0.04310000  0.39100000  1
  H  H114  1  0.97820000  0.96320000  0.23300000  1
  H  H115  1  0.95940000  0.04140000  0.29600000  1
  H  H116  1  0.79790000  0.88790000  0.26400000  1
  H  H117  1  0.82130000  0.80130000  0.22000000  1
  H  H118  1  0.52730000  0.88500000  0.09430000  1
  H  H119  1  0.53920000  0.89180000  0.89100000  1
  H  H120  1  0.55900000  0.97100000  0.24800000  1
  H  H121  1  0.60320000  0.08100000  0.23820000  1
  H  H122  1  0.73690000  0.07670000  0.19760000  1
  H  H123  1  0.71490000  0.97600000  0.22290000  1
  H  H124  1  0.65210000  0.87900000  0.04310000  1
  H  H125  1  0.73020000  0.98500000  0.96320000  1
  H  H126  1  0.74540000  0.08200000  0.04140000  1
  H  H127  1  0.62390000  0.09000000  0.88790000  1
  H  H128  1  0.58130000  0.98000000  0.80130000  1
  H  H129  1  0.79070000  0.35770000  0.88500000  1
  H  H130  1  0.00080000  0.35260000  0.89180000  1
  H  H131  1  0.72300000  0.41200000  0.97100000  1
  H  H132  1  0.84280000  0.47780000  0.08100000  1
  H  H133  1  0.87910000  0.33980000  0.07670000  1
  H  H134  1  0.75310000  0.26110000  0.97600000  1
  H  H135  1  0.83590000  0.22690000  0.87900000  1
  H  H136  1  0.02180000  0.25480000  0.98500000  1
  H  H137  1  0.04060000  0.33660000  0.08200000  1
  H  H138  1  0.20210000  0.46610000  0.09000000  1
  H  H139  1  0.17870000  0.39870000  0.98000000  1
  N  N140  1  0.57020000  0.45000000  0.60820000  1
  N  N141  1  0.58170000  0.65060000  0.61230000  1
  N  N142  1  0.84180000  0.87980000  0.45000000  1
  N  N143  1  0.03830000  0.06890000  0.65060000  1
  N  N144  1  0.42980000  0.03800000  0.87980000  1
  N  N145  1  0.41830000  0.03060000  0.06890000  1
  N  N146  1  0.15820000  0.60820000  0.03800000  1
  N  N147  1  0.96170000  0.61230000  0.03060000  1
  N  N148  1  0.42980000  0.55000000  0.39180000  1
  N  N149  1  0.41830000  0.34940000  0.38770000  1
  N  N150  1  0.15820000  0.12020000  0.55000000  1
  N  N151  1  0.96170000  0.93110000  0.34940000  1
  N  N152  1  0.57020000  0.96200000  0.12020000  1
  N  N153  1  0.58170000  0.96940000  0.93110000  1
  N  N154  1  0.84180000  0.39180000  0.96200000  1
  N  N155  1  0.03830000  0.38770000  0.96940000  1
  O  O156  1  0.02390000  0.87090000  0.02100000  1
  O  O157  1  0.82920000  0.70160000  0.93680000  1
  O  O158  1  0.90670000  0.72300000  0.85170000  1
  O  O159  1  0.93800000  0.79400000  0.14400000  1
  O  O160  1  0.70500000  0.75800000  0.94700000  1
  O  O161  1  0.84990000  0.84700000  0.87090000  1
  O  O162  1  0.76480000  0.87240000  0.70160000  1
  O  O163  1  0.87130000  0.81630000  0.72300000  1
  O  O164  1  0.65000000  0.85600000  0.79400000  1
  O  O165  1  0.81100000  0.05300000  0.75800000  1
  O  O166  1  0.97610000  0.99710000  0.84700000  1
  O  O167  1  0.17080000  0.10760000  0.87240000  1
  O  O168  1  0.09330000  0.94500000  0.81630000  1
  O  O169  1  0.06200000  0.20600000  0.85600000  1
  O  O170  1  0.29500000  0.24200000  0.05300000  1
  O  O171  1  0.15010000  0.02100000  0.99710000  1
  O  O172  1  0.23520000  0.93680000  0.10760000  1
  O  O173  1  0.12870000  0.85170000  0.94500000  1
  O  O174  1  0.35000000  0.14400000  0.20600000  1
  O  O175  1  0.18900000  0.94700000  0.24200000  1
  O  O176  1  0.97610000  0.12910000  0.97900000  1
  O  O177  1  0.17080000  0.29840000  0.06320000  1
  O  O178  1  0.09330000  0.27700000  0.14830000  1
  O  O179  1  0.15010000  0.15300000  0.12910000  1
  O  O180  1  0.23520000  0.12760000  0.29840000  1
  O  O181  1  0.12870000  0.18370000  0.27700000  1
  O  O182  1  0.02390000  0.00290000  0.15300000  1
  O  O183  1  0.82920000  0.89240000  0.12760000  1
  O  O184  1  0.90670000  0.05500000  0.18370000  1
  O  O185  1  0.84990000  0.97900000  0.00290000  1
  O  O186  1  0.76480000  0.06320000  0.89240000  1
  O  O187  1  0.87130000  0.14830000  0.05500000  1
  Zr  Zr188  1  0.88065000  0.85820000  0.02245000  1
  Zr  Zr189  1  0.00000000  0.88070000  0.88070000  1
  Zr  Zr190  1  0.83575000  0.97755000  0.85820000  1
  Zr  Zr191  1  0.11935000  0.14180000  0.97755000  1
  Zr  Zr192  1  0.16425000  0.02245000  0.14180000  1
  Zr  Zr193  1  0.00000000  0.11930000  0.11930000  1
