# generated using pymatgen
data_ZrP3H15C23NO9F2
_symmetry_space_group_name_H-M   'P 1'
_cell_length_a   8.28000000
_cell_length_b   13.90850000
_cell_length_c   15.22150000
_cell_angle_alpha   78.68700000
_cell_angle_beta   83.33600000
_cell_angle_gamma   88.49700000
_symmetry_Int_Tables_number   1
_chemical_formula_structural   ZrP3H15C23NO9F2
_chemical_formula_sum   'Zr2 P6 H30 C46 N2 O18 F4'
_cell_volume   1707.26076773
_cell_formula_units_Z   2
loop_
 _symmetry_equiv_pos_site_id
 _symmetry_equiv_pos_as_xyz
  1  'x, y, z'
loop_
 _atom_site_type_symbol
 _atom_site_label
 _atom_site_symmetry_multiplicity
 _atom_site_fract_x
 _atom_site_fract_y
 _atom_site_fract_z
 _atom_site_occupancy
  Zr  Zr0  1  0.87118000  0.61539000  0.11889000  1
  Zr  Zr1  1  0.12882000  0.38461000  0.88111000  1
  P  P2  1  0.90346000  0.37205000  0.09616000  1
  P  P3  1  0.66603000  0.56199000  0.34024000  1
  P  P4  1  0.10115000  0.12582000  0.92105000  1
  P  P5  1  0.09654000  0.62795000  0.90384000  1
  P  P6  1  0.33397000  0.43801000  0.65976000  1
  P  P7  1  0.89885000  0.87418000  0.07895000  1
  H  H8  1  0.16590000  0.00480000  0.00570000  1
  H  H9  1  0.25280000  0.97300000  0.31680000  1
  H  H10  1  0.34600000  0.90500000  0.57430000  1
  H  H11  1  0.96400000  0.22000000  0.40190000  1
  H  H12  1  0.86300000  0.33460000  0.29000000  1
  H  H13  1  0.09900000  0.19800000  0.10170000  1
  H  H14  1  0.20400000  0.08410000  0.21400000  1
  H  H15  1  0.46500000  0.89200000  0.28860000  1
  H  H16  1  0.60700000  0.75800000  0.25220000  1
  H  H17  1  0.51200000  0.61360000  0.50790000  1
  H  H18  1  0.38100000  0.74900000  0.54550000  1
  H  H19  1  0.29200000  0.92470000  0.70600000  1
  H  H20  1  0.25500000  0.96800000  0.84880000  1
  H  H21  1  0.01200000  0.20880000  0.74900000  1
  H  H22  1  0.05600000  0.16600000  0.60440000  1
  H  H23  1  0.83410000  0.99520000  0.99430000  1
  H  H24  1  0.74720000  0.02700000  0.68320000  1
  H  H25  1  0.65400000  0.09500000  0.42570000  1
  H  H26  1  0.03600000  0.78000000  0.59810000  1
  H  H27  1  0.13700000  0.66540000  0.71000000  1
  H  H28  1  0.90100000  0.80200000  0.89830000  1
  H  H29  1  0.79600000  0.91590000  0.78600000  1
  H  H30  1  0.53500000  0.10800000  0.71140000  1
  H  H31  1  0.39300000  0.24200000  0.74780000  1
  H  H32  1  0.48800000  0.38640000  0.49210000  1
  H  H33  1  0.61900000  0.25100000  0.45450000  1
  H  H34  1  0.70800000  0.07530000  0.29400000  1
  H  H35  1  0.74500000  0.03200000  0.15120000  1
  H  H36  1  0.98800000  0.79120000  0.25100000  1
  H  H37  1  0.94400000  0.83400000  0.39560000  1
  C  C38  1  0.16910000  0.07064000  0.39361000  1
  C  C39  1  0.24600000  0.98717000  0.37574000  1
  C  C40  1  0.31350000  0.92378000  0.44297000  1
  C  C41  1  0.29700000  0.94319000  0.52939000  1
  C  C42  1  0.21420000  0.02570000  0.54662000  1
  C  C43  1  0.09970000  0.14104000  0.32091000  1
  C  C44  1  0.99490000  0.21621000  0.34136000  1
  C  C45  1  0.93440000  0.28435000  0.27450000  1
  C  C46  1  0.97520000  0.27947000  0.18353000  1
  C  C47  1  0.07710000  0.20334000  0.16279000  1
  C  C48  1  0.13750000  0.13576000  0.23006000  1
  C  C49  1  0.40330000  0.83589000  0.42143000  1
  C  C50  1  0.47060000  0.83554000  0.33300000  1
  C  C51  1  0.55480000  0.75543000  0.31037000  1
  C  C52  1  0.57270000  0.67063000  0.37447000  1
  C  C53  1  0.50670000  0.67019000  0.46339000  1
  C  C54  1  0.42340000  0.75153000  0.48634000  1
  C  C55  1  0.18550000  0.04669000  0.63911000  1
  C  C56  1  0.24130000  0.98542000  0.71243000  1
  C  C57  1  0.21530000  0.00724000  0.79800000  1
  C  C58  1  0.13190000  0.09165000  0.81262000  1
  C  C59  1  0.07250000  0.15220000  0.73980000  1
  C  C60  1  0.09820000  0.13020000  0.65440000  1
  C  C61  1  0.83090000  0.92936000  0.60639000  1
  C  C62  1  0.75400000  0.01283000  0.62426000  1
  C  C63  1  0.68650000  0.07622000  0.55703000  1
  C  C64  1  0.70300000  0.05681000  0.47061000  1
  C  C65  1  0.78580000  0.97430000  0.45338000  1
  C  C66  1  0.90030000  0.85896000  0.67909000  1
  C  C67  1  0.00510000  0.78379000  0.65864000  1
  C  C68  1  0.06560000  0.71565000  0.72550000  1
  C  C69  1  0.02480000  0.72053000  0.81647000  1
  C  C70  1  0.92290000  0.79666000  0.83721000  1
  C  C71  1  0.86250000  0.86424000  0.76994000  1
  C  C72  1  0.59670000  0.16411000  0.57857000  1
  C  C73  1  0.52940000  0.16446000  0.66700000  1
  C  C74  1  0.44520000  0.24457000  0.68963000  1
  C  C75  1  0.42730000  0.32937000  0.62553000  1
  C  C76  1  0.49330000  0.32981000  0.53661000  1
  C  C77  1  0.57660000  0.24847000  0.51366000  1
  C  C78  1  0.81450000  0.95331000  0.36089000  1
  C  C79  1  0.75870000  0.01458000  0.28757000  1
  C  C80  1  0.78470000  0.99276000  0.20200000  1
  C  C81  1  0.86810000  0.90835000  0.18738000  1
  C  C82  1  0.92750000  0.84780000  0.26020000  1
  C  C83  1  0.90180000  0.86980000  0.34560000  1
  N  N84  1  0.15410000  0.09051000  0.47826000  1
  N  N85  1  0.84590000  0.90949000  0.52174000  1
  O  O86  1  0.73480000  0.34855000  0.07967000  1
  O  O87  1  0.02900000  0.37438000  0.01437000  1
  O  O88  1  0.90580000  0.46647000  0.13365000  1
  O  O89  1  0.76220000  0.51014000  0.41286000  1
  O  O90  1  0.52630000  0.50343000  0.32130000  1
  O  O91  1  0.77530000  0.60145000  0.25137000  1
  O  O92  1  0.21370000  0.05791000  0.98299000  1
  O  O93  1  0.92510000  0.11102000  0.95879000  1
  O  O94  1  0.16340000  0.22921000  0.90958000  1
  O  O95  1  0.97100000  0.62562000  0.98563000  1
  O  O96  1  0.83660000  0.77079000  0.09042000  1
  O  O97  1  0.26520000  0.65145000  0.92033000  1
  O  O98  1  0.09420000  0.53353000  0.86635000  1
  O  O99  1  0.23780000  0.48986000  0.58714000  1
  O  O100  1  0.47370000  0.49657000  0.67870000  1
  O  O101  1  0.22470000  0.39855000  0.74863000  1
  O  O102  1  0.78630000  0.94209000  0.01701000  1
  O  O103  1  0.07490000  0.88898000  0.04121000  1
  F  F104  1  0.08911000  0.63995000  0.15251000  1
  F  F105  1  0.65161000  0.60636000  0.08053000  1
  F  F106  1  0.91089000  0.36005000  0.84749000  1
  F  F107  1  0.34839000  0.39364000  0.91947000  1
