# generated using pymatgen
data_Zr3H60(C9O2)8
_symmetry_space_group_name_H-M   'P 1'
_cell_length_a   23.09198615
_cell_length_b   23.09198615
_cell_length_c   23.09198615
_cell_angle_alpha   60.00000000
_cell_angle_beta   60.00000000
_cell_angle_gamma   60.00000000
_symmetry_Int_Tables_number   1
_chemical_formula_structural   Zr3H60(C9O2)8
_chemical_formula_sum   'Zr6 H120 C144 O32'
_cell_volume   8707.00647435
_cell_formula_units_Z   2
loop_
 _symmetry_equiv_pos_site_id
 _symmetry_equiv_pos_as_xyz
  1  'x, y, z'
loop_
 _atom_site_type_symbol
 _atom_site_label
 _atom_site_symmetry_multiplicity
 _atom_site_fract_x
 _atom_site_fract_y
 _atom_site_fract_z
 _atom_site_occupancy
  C  C0  1  0.50000000  0.31066000  0.68934000  1
  C  C1  1  0.50000000  0.24480000  0.75520000  1
  C  C2  1  0.44789000  0.21469000  0.78531000  1
  C  C3  1  0.44780000  0.15380000  0.84620000  1
  C  C4  1  0.50000000  0.12480000  0.87520000  1
  C  C5  1  0.50000000  0.05934000  0.94066000  1
  C  C6  1  0.53718000  0.99292000  0.93272000  1
  C  C7  1  0.57770000  0.98550000  0.85910000  1
  C  C8  1  0.50000000  0.68934000  0.31066000  1
  C  C9  1  0.50000000  0.75520000  0.24480000  1
  C  C10  1  0.55211000  0.78531000  0.21469000  1
  C  C11  1  0.55220000  0.84620000  0.15380000  1
  C  C12  1  0.50000000  0.87520000  0.12480000  1
  C  C13  1  0.50000000  0.94066000  0.05934000  1
  C  C14  1  0.53718000  0.93272000  0.99292000  1
  C  C15  1  0.57770000  0.85910000  0.98550000  1
  C  C16  1  0.55211000  0.21469000  0.78531000  1
  C  C17  1  0.55220000  0.15380000  0.84620000  1
  C  C18  1  0.46282000  0.06728000  0.00708000  1
  C  C19  1  0.42230000  0.14090000  0.01450000  1
  C  C20  1  0.44789000  0.78531000  0.21469000  1
  C  C21  1  0.44780000  0.84620000  0.15380000  1
  C  C22  1  0.46282000  0.00708000  0.06728000  1
  C  C23  1  0.42230000  0.01450000  0.14090000  1
  C  C24  1  0.31066000  0.50000000  0.50000000  1
  C  C25  1  0.24480000  0.50000000  0.50000000  1
  C  C26  1  0.21469000  0.55211000  0.44789000  1
  C  C27  1  0.15380000  0.55220000  0.44780000  1
  C  C28  1  0.12480000  0.50000000  0.50000000  1
  C  C29  1  0.05934000  0.50000000  0.50000000  1
  C  C30  1  0.06728000  0.46282000  0.46282000  1
  C  C31  1  0.14090000  0.42230000  0.42230000  1
  C  C32  1  0.68934000  0.50000000  0.50000000  1
  C  C33  1  0.75520000  0.50000000  0.50000000  1
  C  C34  1  0.78531000  0.44789000  0.55211000  1
  C  C35  1  0.84620000  0.44780000  0.55220000  1
  C  C36  1  0.87520000  0.50000000  0.50000000  1
  C  C37  1  0.94066000  0.50000000  0.50000000  1
  C  C38  1  0.00708000  0.46282000  0.46282000  1
  C  C39  1  0.01450000  0.42230000  0.42230000  1
  C  C40  1  0.21469000  0.44789000  0.55211000  1
  C  C41  1  0.15380000  0.44780000  0.55220000  1
  C  C42  1  0.99292000  0.53718000  0.53718000  1
  C  C43  1  0.98550000  0.57770000  0.57770000  1
  C  C44  1  0.78531000  0.55211000  0.44789000  1
  C  C45  1  0.84620000  0.55220000  0.44780000  1
  C  C46  1  0.93272000  0.53718000  0.53718000  1
  C  C47  1  0.85910000  0.57770000  0.57770000  1
  C  C48  1  0.31066000  0.68934000  0.50000000  1
  C  C49  1  0.24480000  0.75520000  0.50000000  1
  C  C50  1  0.21469000  0.78531000  0.44789000  1
  C  C51  1  0.15380000  0.84620000  0.44780000  1
  C  C52  1  0.12480000  0.87520000  0.50000000  1
  C  C53  1  0.05934000  0.94066000  0.50000000  1
  C  C54  1  0.99292000  0.93272000  0.53718000  1
  C  C55  1  0.98550000  0.85910000  0.57770000  1
  C  C56  1  0.68934000  0.31066000  0.50000000  1
  C  C57  1  0.75520000  0.24480000  0.50000000  1
  C  C58  1  0.78531000  0.21469000  0.55211000  1
  C  C59  1  0.84620000  0.15380000  0.55220000  1
  C  C60  1  0.87520000  0.12480000  0.50000000  1
  C  C61  1  0.94066000  0.05934000  0.50000000  1
  C  C62  1  0.93272000  0.99292000  0.53718000  1
  C  C63  1  0.85910000  0.98550000  0.57770000  1
  C  C64  1  0.21469000  0.78531000  0.55211000  1
  C  C65  1  0.15380000  0.84620000  0.55220000  1
  C  C66  1  0.06728000  0.00708000  0.46282000  1
  C  C67  1  0.14090000  0.01450000  0.42230000  1
  C  C68  1  0.78531000  0.21469000  0.44789000  1
  C  C69  1  0.84620000  0.15380000  0.44780000  1
  C  C70  1  0.00708000  0.06728000  0.46282000  1
  C  C71  1  0.01450000  0.14090000  0.42230000  1
  C  C72  1  0.50000000  0.50000000  0.31066000  1
  C  C73  1  0.50000000  0.50000000  0.24480000  1
  C  C74  1  0.55211000  0.44789000  0.21469000  1
  C  C75  1  0.55220000  0.44780000  0.15380000  1
  C  C76  1  0.50000000  0.50000000  0.12480000  1
  C  C77  1  0.50000000  0.50000000  0.05934000  1
  C  C78  1  0.46282000  0.46282000  0.06728000  1
  C  C79  1  0.42230000  0.42230000  0.14090000  1
  C  C80  1  0.50000000  0.50000000  0.68934000  1
  C  C81  1  0.50000000  0.50000000  0.75520000  1
  C  C82  1  0.44789000  0.55211000  0.78531000  1
  C  C83  1  0.44780000  0.55220000  0.84620000  1
  C  C84  1  0.50000000  0.50000000  0.87520000  1
  C  C85  1  0.50000000  0.50000000  0.94066000  1
  C  C86  1  0.46282000  0.46282000  0.00708000  1
  C  C87  1  0.42230000  0.42230000  0.01450000  1
  C  C88  1  0.44789000  0.55211000  0.21469000  1
  C  C89  1  0.44780000  0.55220000  0.15380000  1
  C  C90  1  0.53718000  0.53718000  0.99292000  1
  C  C91  1  0.57770000  0.57770000  0.98550000  1
  C  C92  1  0.55211000  0.44789000  0.78531000  1
  C  C93  1  0.55220000  0.44780000  0.84620000  1
  C  C94  1  0.53718000  0.53718000  0.93272000  1
  C  C95  1  0.57770000  0.57770000  0.85910000  1
  C  C96  1  0.50000000  0.68934000  0.50000000  1
  C  C97  1  0.50000000  0.75520000  0.50000000  1
  C  C98  1  0.55211000  0.78531000  0.44789000  1
  C  C99  1  0.55220000  0.84620000  0.44780000  1
  C  C100  1  0.50000000  0.87520000  0.50000000  1
  C  C101  1  0.50000000  0.94066000  0.50000000  1
  C  C102  1  0.46282000  0.00708000  0.46282000  1
  C  C103  1  0.42230000  0.01450000  0.42230000  1
  C  C104  1  0.50000000  0.31066000  0.50000000  1
  C  C105  1  0.50000000  0.24480000  0.50000000  1
  C  C106  1  0.44789000  0.21469000  0.55211000  1
  C  C107  1  0.44780000  0.15380000  0.55220000  1
  C  C108  1  0.50000000  0.12480000  0.50000000  1
  C  C109  1  0.50000000  0.05934000  0.50000000  1
  C  C110  1  0.46282000  0.06728000  0.46282000  1
  C  C111  1  0.42230000  0.14090000  0.42230000  1
  C  C112  1  0.44789000  0.78531000  0.55211000  1
  C  C113  1  0.44780000  0.84620000  0.55220000  1
  C  C114  1  0.53718000  0.93272000  0.53718000  1
  C  C115  1  0.57770000  0.85910000  0.57770000  1
  C  C116  1  0.55211000  0.21469000  0.44789000  1
  C  C117  1  0.55220000  0.15380000  0.44780000  1
  C  C118  1  0.53718000  0.99292000  0.53718000  1
  C  C119  1  0.57770000  0.98550000  0.57770000  1
  C  C120  1  0.68934000  0.50000000  0.31066000  1
  C  C121  1  0.75520000  0.50000000  0.24480000  1
  C  C122  1  0.78531000  0.44789000  0.21469000  1
  C  C123  1  0.84620000  0.44780000  0.15380000  1
  C  C124  1  0.87520000  0.50000000  0.12480000  1
  C  C125  1  0.94066000  0.50000000  0.05934000  1
  C  C126  1  0.93272000  0.53718000  0.99292000  1
  C  C127  1  0.85910000  0.57770000  0.98550000  1
  C  C128  1  0.31066000  0.50000000  0.68934000  1
  C  C129  1  0.24480000  0.50000000  0.75520000  1
  C  C130  1  0.21469000  0.55211000  0.78531000  1
  C  C131  1  0.15380000  0.55220000  0.84620000  1
  C  C132  1  0.12480000  0.50000000  0.87520000  1
  C  C133  1  0.05934000  0.50000000  0.94066000  1
  C  C134  1  0.99292000  0.53718000  0.93272000  1
  C  C135  1  0.98550000  0.57770000  0.85910000  1
  C  C136  1  0.78531000  0.55211000  0.21469000  1
  C  C137  1  0.84620000  0.55220000  0.15380000  1
  C  C138  1  0.00708000  0.46282000  0.06728000  1
  C  C139  1  0.01450000  0.42230000  0.14090000  1
  C  C140  1  0.21469000  0.44789000  0.78531000  1
  C  C141  1  0.15380000  0.44780000  0.84620000  1
  C  C142  1  0.06728000  0.46282000  0.00708000  1
  C  C143  1  0.14090000  0.42230000  0.01450000  1
  H  H144  1  0.41230000  0.23530000  0.76470000  1
  H  H145  1  0.41220000  0.13300000  0.86700000  1
  H  H146  1  0.57190000  0.03190000  0.82430000  1
  H  H147  1  0.62650000  0.96090000  0.85270000  1
  H  H148  1  0.58770000  0.76470000  0.23530000  1
  H  H149  1  0.58780000  0.86700000  0.13300000  1
  H  H150  1  0.57190000  0.82430000  0.03190000  1
  H  H151  1  0.55990000  0.85270000  0.96090000  1
  H  H152  1  0.58770000  0.23530000  0.76470000  1
  H  H153  1  0.58780000  0.13300000  0.86700000  1
  H  H154  1  0.42810000  0.17570000  0.96810000  1
  H  H155  1  0.37350000  0.14730000  0.03910000  1
  H  H156  1  0.44010000  0.14730000  0.03910000  1
  H  H157  1  0.41230000  0.76470000  0.23530000  1
  H  H158  1  0.41220000  0.86700000  0.13300000  1
  H  H159  1  0.62650000  0.85270000  0.96090000  1
  H  H160  1  0.42810000  0.96810000  0.17570000  1
  H  H161  1  0.37350000  0.03910000  0.14730000  1
  H  H162  1  0.55990000  0.96090000  0.85270000  1
  H  H163  1  0.44010000  0.03910000  0.14730000  1
  H  H164  1  0.23530000  0.58770000  0.41230000  1
  H  H165  1  0.13300000  0.58780000  0.41220000  1
  H  H166  1  0.17570000  0.42810000  0.42810000  1
  H  H167  1  0.14730000  0.37350000  0.44010000  1
  H  H168  1  0.76470000  0.41230000  0.58770000  1
  H  H169  1  0.86700000  0.41220000  0.58780000  1
  H  H170  1  0.96810000  0.42810000  0.42810000  1
  H  H171  1  0.03910000  0.44010000  0.37350000  1
  H  H172  1  0.23530000  0.41230000  0.58770000  1
  H  H173  1  0.13300000  0.41220000  0.58780000  1
  H  H174  1  0.03190000  0.57190000  0.57190000  1
  H  H175  1  0.96090000  0.62650000  0.55990000  1
  H  H176  1  0.96090000  0.55990000  0.62650000  1
  H  H177  1  0.76470000  0.58770000  0.41230000  1
  H  H178  1  0.86700000  0.58780000  0.41220000  1
  H  H179  1  0.03910000  0.37350000  0.44010000  1
  H  H180  1  0.82430000  0.57190000  0.57190000  1
  H  H181  1  0.85270000  0.62650000  0.55990000  1
  H  H182  1  0.14730000  0.44010000  0.37350000  1
  H  H183  1  0.85270000  0.55990000  0.62650000  1
  H  H184  1  0.23530000  0.76470000  0.41230000  1
  H  H185  1  0.13300000  0.86700000  0.41220000  1
  H  H186  1  0.03190000  0.82430000  0.57190000  1
  H  H187  1  0.96090000  0.85270000  0.62650000  1
  H  H188  1  0.76470000  0.23530000  0.58770000  1
  H  H189  1  0.86700000  0.13300000  0.58780000  1
  H  H190  1  0.82430000  0.03190000  0.57190000  1
  H  H191  1  0.85270000  0.96090000  0.55990000  1
  H  H192  1  0.23530000  0.76470000  0.58770000  1
  H  H193  1  0.13300000  0.86700000  0.58780000  1
  H  H194  1  0.17570000  0.96810000  0.42810000  1
  H  H195  1  0.14730000  0.03910000  0.37350000  1
  H  H196  1  0.14730000  0.03910000  0.44010000  1
  H  H197  1  0.76470000  0.23530000  0.41230000  1
  H  H198  1  0.86700000  0.13300000  0.41220000  1
  H  H199  1  0.85270000  0.96090000  0.62650000  1
  H  H200  1  0.96810000  0.17570000  0.42810000  1
  H  H201  1  0.03910000  0.14730000  0.37350000  1
  H  H202  1  0.96090000  0.85270000  0.55990000  1
  H  H203  1  0.03910000  0.14730000  0.44010000  1
  H  H204  1  0.58770000  0.41230000  0.23530000  1
  H  H205  1  0.58780000  0.41220000  0.13300000  1
  H  H206  1  0.42810000  0.42810000  0.17570000  1
  H  H207  1  0.37350000  0.44010000  0.14730000  1
  H  H208  1  0.41230000  0.58770000  0.76470000  1
  H  H209  1  0.41220000  0.58780000  0.86700000  1
  H  H210  1  0.42810000  0.42810000  0.96810000  1
  H  H211  1  0.44010000  0.37350000  0.03910000  1
  H  H212  1  0.41230000  0.58770000  0.23530000  1
  H  H213  1  0.41220000  0.58780000  0.13300000  1
  H  H214  1  0.57190000  0.57190000  0.03190000  1
  H  H215  1  0.62650000  0.55990000  0.96090000  1
  H  H216  1  0.55990000  0.62650000  0.96090000  1
  H  H217  1  0.58770000  0.41230000  0.76470000  1
  H  H218  1  0.58780000  0.41220000  0.86700000  1
  H  H219  1  0.37350000  0.44010000  0.03910000  1
  H  H220  1  0.57190000  0.57190000  0.82430000  1
  H  H221  1  0.62650000  0.55990000  0.85270000  1
  H  H222  1  0.44010000  0.37350000  0.14730000  1
  H  H223  1  0.55990000  0.62650000  0.85270000  1
  H  H224  1  0.58770000  0.76470000  0.41230000  1
  H  H225  1  0.58780000  0.86700000  0.41220000  1
  H  H226  1  0.42810000  0.96810000  0.42810000  1
  H  H227  1  0.37350000  0.03910000  0.44010000  1
  H  H228  1  0.41230000  0.23530000  0.58770000  1
  H  H229  1  0.41220000  0.13300000  0.58780000  1
  H  H230  1  0.42810000  0.17570000  0.42810000  1
  H  H231  1  0.44010000  0.14730000  0.37350000  1
  H  H232  1  0.41230000  0.76470000  0.58770000  1
  H  H233  1  0.41220000  0.86700000  0.58780000  1
  H  H234  1  0.57190000  0.82430000  0.57190000  1
  H  H235  1  0.62650000  0.85270000  0.55990000  1
  H  H236  1  0.55990000  0.85270000  0.62650000  1
  H  H237  1  0.58770000  0.23530000  0.41230000  1
  H  H238  1  0.58780000  0.13300000  0.41220000  1
  H  H239  1  0.37350000  0.14730000  0.44010000  1
  H  H240  1  0.57190000  0.03190000  0.57190000  1
  H  H241  1  0.62650000  0.96090000  0.55990000  1
  H  H242  1  0.44010000  0.03910000  0.37350000  1
  H  H243  1  0.55990000  0.96090000  0.62650000  1
  H  H244  1  0.76470000  0.41230000  0.23530000  1
  H  H245  1  0.86700000  0.41220000  0.13300000  1
  H  H246  1  0.82430000  0.57190000  0.03190000  1
  H  H247  1  0.85270000  0.62650000  0.96090000  1
  H  H248  1  0.23530000  0.58770000  0.76470000  1
  H  H249  1  0.13300000  0.58780000  0.86700000  1
  H  H250  1  0.03190000  0.57190000  0.82430000  1
  H  H251  1  0.96090000  0.55990000  0.85270000  1
  H  H252  1  0.76470000  0.58770000  0.23530000  1
  H  H253  1  0.86700000  0.58780000  0.13300000  1
  H  H254  1  0.96810000  0.42810000  0.17570000  1
  H  H255  1  0.03910000  0.37350000  0.14730000  1
  H  H256  1  0.03910000  0.44010000  0.14730000  1
  H  H257  1  0.23530000  0.41230000  0.76470000  1
  H  H258  1  0.13300000  0.41220000  0.86700000  1
  H  H259  1  0.96090000  0.62650000  0.85270000  1
  H  H260  1  0.17570000  0.42810000  0.96810000  1
  H  H261  1  0.14730000  0.37350000  0.03910000  1
  H  H262  1  0.85270000  0.55990000  0.96090000  1
  H  H263  1  0.14730000  0.44010000  0.03910000  1
  O  O264  1  0.46293000  0.46293000  0.61121000  1
  O  O265  1  0.45047000  0.33317000  0.66683000  1
  O  O266  1  0.54953000  0.66683000  0.33317000  1
  O  O267  1  0.54953000  0.33317000  0.66683000  1
  O  O268  1  0.45047000  0.66683000  0.33317000  1
  O  O269  1  0.33317000  0.54953000  0.45047000  1
  O  O270  1  0.66683000  0.45047000  0.54953000  1
  O  O271  1  0.33317000  0.45047000  0.54953000  1
  O  O272  1  0.66683000  0.54953000  0.45047000  1
  O  O273  1  0.46293000  0.46293000  0.46293000  1
  O  O274  1  0.38879000  0.53707000  0.53707000  1
  O  O275  1  0.53707000  0.38879000  0.53707000  1
  O  O276  1  0.53707000  0.53707000  0.53707000  1
  O  O277  1  0.61121000  0.46293000  0.46293000  1
  O  O278  1  0.46293000  0.61121000  0.46293000  1
  O  O279  1  0.53707000  0.53707000  0.38879000  1
  O  O280  1  0.33317000  0.45047000  0.66683000  1
  O  O281  1  0.45047000  0.33317000  0.54953000  1
  O  O282  1  0.33317000  0.66683000  0.45047000  1
  O  O283  1  0.66683000  0.33317000  0.54953000  1
  O  O284  1  0.54953000  0.45047000  0.66683000  1
  O  O285  1  0.45047000  0.54953000  0.33317000  1
  O  O286  1  0.54953000  0.66683000  0.45047000  1
  O  O287  1  0.66683000  0.54953000  0.33317000  1
  O  O288  1  0.33317000  0.66683000  0.54953000  1
  O  O289  1  0.66683000  0.33317000  0.45047000  1
  O  O290  1  0.54953000  0.45047000  0.33317000  1
  O  O291  1  0.45047000  0.54953000  0.66683000  1
  O  O292  1  0.66683000  0.45047000  0.33317000  1
  O  O293  1  0.33317000  0.54953000  0.66683000  1
  O  O294  1  0.45047000  0.66683000  0.54953000  1
  O  O295  1  0.54953000  0.33317000  0.45047000  1
  Zr  Zr296  1  0.42465000  0.42465000  0.57535000  1
  Zr  Zr297  1  0.42465000  0.57535000  0.42465000  1
  Zr  Zr298  1  0.57535000  0.42465000  0.57535000  1
  Zr  Zr299  1  0.57535000  0.57535000  0.42465000  1
  Zr  Zr300  1  0.42465000  0.57535000  0.57535000  1
  Zr  Zr301  1  0.57535000  0.42465000  0.42465000  1
