# generated using pymatgen
data_Zr3H16C32(NO6)2
_symmetry_space_group_name_H-M   'P 1'
_cell_length_a   14.11350000
_cell_length_b   16.55938105
_cell_length_c   16.98165588
_cell_angle_alpha   79.79990056
_cell_angle_beta   65.44595769
_cell_angle_gamma   64.77663925
_symmetry_Int_Tables_number   1
_chemical_formula_structural   Zr3H16C32(NO6)2
_chemical_formula_sum   'Zr6 H32 C64 N4 O24'
_cell_volume   3265.70587114
_cell_formula_units_Z   2
loop_
 _symmetry_equiv_pos_site_id
 _symmetry_equiv_pos_as_xyz
  1  'x, y, z'
loop_
 _atom_site_type_symbol
 _atom_site_label
 _atom_site_symmetry_multiplicity
 _atom_site_fract_x
 _atom_site_fract_y
 _atom_site_fract_z
 _atom_site_occupancy
  C  C0  1  0.38605000  0.78692000  0.14838000  1
  C  C1  1  0.35464000  0.71966000  0.21466000  1
  C  C2  1  0.43300000  0.63324000  0.21456000  1
  C  C3  1  0.40530000  0.57542000  0.28138000  1
  C  C4  1  0.29788000  0.60284000  0.34840000  1
  C  C5  1  0.22004000  0.68952000  0.34660000  1
  C  C6  1  0.24822000  0.74708000  0.28028000  1
  C  C7  1  0.26942000  0.54652000  0.42484000  1
  C  C8  1  0.32135000  0.21308000  0.85162000  1
  C  C9  1  0.28896000  0.28034000  0.78534000  1
  C  C10  1  0.28080000  0.36676000  0.78544000  1
  C  C11  1  0.26210000  0.42458000  0.71862000  1
  C  C12  1  0.24912000  0.39716000  0.65160000  1
  C  C13  1  0.25616000  0.31048000  0.65340000  1
  C  C14  1  0.27558000  0.25292000  0.71972000  1
  C  C15  1  0.24078000  0.45348000  0.57516000  1
  C  C16  1  0.82703000  0.78692000  0.85162000  1
  C  C17  1  0.92570000  0.71966000  0.78534000  1
  C  C18  1  0.93376000  0.63324000  0.78544000  1
  C  C19  1  0.01928000  0.57542000  0.71862000  1
  C  C20  1  0.09928000  0.60284000  0.65160000  1
  C  C21  1  0.09044000  0.68952000  0.65340000  1
  C  C22  1  0.00470000  0.74708000  0.71972000  1
  C  C23  1  0.18406000  0.54652000  0.57516000  1
  C  C24  1  0.46557000  0.21308000  0.14838000  1
  C  C25  1  0.43070000  0.28034000  0.21466000  1
  C  C26  1  0.35244000  0.36676000  0.21456000  1
  C  C27  1  0.31332000  0.42458000  0.28138000  1
  C  C28  1  0.35372000  0.39716000  0.34840000  1
  C  C29  1  0.43336000  0.31048000  0.34660000  1
  C  C30  1  0.47150000  0.25292000  0.28028000  1
  C  C31  1  0.30574000  0.45348000  0.42484000  1
  C  C32  1  0.61395000  0.21308000  0.85162000  1
  C  C33  1  0.64536000  0.28034000  0.78534000  1
  C  C34  1  0.56700000  0.36676000  0.78544000  1
  C  C35  1  0.59470000  0.42458000  0.71862000  1
  C  C36  1  0.70212000  0.39716000  0.65160000  1
  C  C37  1  0.77996000  0.31048000  0.65340000  1
  C  C38  1  0.75178000  0.25292000  0.71972000  1
  C  C39  1  0.73058000  0.45348000  0.57516000  1
  C  C40  1  0.67865000  0.78692000  0.14838000  1
  C  C41  1  0.71104000  0.71966000  0.21466000  1
  C  C42  1  0.71920000  0.63324000  0.21456000  1
  C  C43  1  0.73790000  0.57542000  0.28138000  1
  C  C44  1  0.75088000  0.60284000  0.34840000  1
  C  C45  1  0.74384000  0.68952000  0.34660000  1
  C  C46  1  0.72442000  0.74708000  0.28028000  1
  C  C47  1  0.75922000  0.54652000  0.42484000  1
  C  C48  1  0.17297000  0.21308000  0.14838000  1
  C  C49  1  0.07430000  0.28034000  0.21466000  1
  C  C50  1  0.06624000  0.36676000  0.21456000  1
  C  C51  1  0.98072000  0.42458000  0.28138000  1
  C  C52  1  0.90072000  0.39716000  0.34840000  1
  C  C53  1  0.90956000  0.31048000  0.34660000  1
  C  C54  1  0.99530000  0.25292000  0.28028000  1
  C  C55  1  0.81594000  0.45348000  0.42484000  1
  C  C56  1  0.53443000  0.78692000  0.85162000  1
  C  C57  1  0.56930000  0.71966000  0.78534000  1
  C  C58  1  0.64756000  0.63324000  0.78544000  1
  C  C59  1  0.68668000  0.57542000  0.71862000  1
  C  C60  1  0.64628000  0.60284000  0.65160000  1
  C  C61  1  0.56664000  0.68952000  0.65340000  1
  C  C62  1  0.52850000  0.74708000  0.71972000  1
  C  C63  1  0.69426000  0.54652000  0.57516000  1
  H  H64  1  0.50560000  0.61360000  0.16880000  1
  H  H65  1  0.45970000  0.51660000  0.28160000  1
  H  H66  1  0.14680000  0.70920000  0.39140000  1
  H  H67  1  0.19410000  0.80600000  0.27980000  1
  H  H68  1  0.28800000  0.38640000  0.83120000  1
  H  H69  1  0.25790000  0.48340000  0.71840000  1
  H  H70  1  0.24740000  0.29080000  0.60860000  1
  H  H71  1  0.27990000  0.19400000  0.72020000  1
  H  H72  1  0.88080000  0.61360000  0.83120000  1
  H  H73  1  0.02370000  0.51660000  0.71840000  1
  H  H74  1  0.14400000  0.70920000  0.60860000  1
  H  H75  1  0.99990000  0.80600000  0.72020000  1
  H  H76  1  0.32560000  0.38640000  0.16880000  1
  H  H77  1  0.25870000  0.48340000  0.28160000  1
  H  H78  1  0.46180000  0.29080000  0.39140000  1
  H  H79  1  0.52610000  0.19400000  0.27980000  1
  H  H80  1  0.49440000  0.38640000  0.83120000  1
  H  H81  1  0.54030000  0.48340000  0.71840000  1
  H  H82  1  0.85320000  0.29080000  0.60860000  1
  H  H83  1  0.80590000  0.19400000  0.72020000  1
  H  H84  1  0.71200000  0.61360000  0.16880000  1
  H  H85  1  0.74210000  0.51660000  0.28160000  1
  H  H86  1  0.75260000  0.70920000  0.39140000  1
  H  H87  1  0.72010000  0.80600000  0.27980000  1
  H  H88  1  0.11920000  0.38640000  0.16880000  1
  H  H89  1  0.97630000  0.48340000  0.28160000  1
  H  H90  1  0.85600000  0.29080000  0.39140000  1
  H  H91  1  0.00010000  0.19400000  0.27980000  1
  H  H92  1  0.67440000  0.61360000  0.83120000  1
  H  H93  1  0.74130000  0.51660000  0.71840000  1
  H  H94  1  0.53820000  0.70920000  0.60860000  1
  H  H95  1  0.47390000  0.80600000  0.72020000  1
  N  N96  1  0.20433000  0.59134000  0.50000000  1
  N  N97  1  0.29567000  0.40866000  0.50000000  1
  N  N98  1  0.79567000  0.40866000  0.50000000  1
  N  N99  1  0.70433000  0.59134000  0.50000000  1
  O  O100  1  0.31322000  0.86600000  0.15996000  1
  O  O101  1  0.48215000  0.75960000  0.08770000  1
  O  O102  1  0.48255000  0.91950000  0.11540000  1
  O  O103  1  0.41527000  0.92046000  0.00000000  1
  O  O104  1  0.33918000  0.13400000  0.84004000  1
  O  O105  1  0.32945000  0.24040000  0.91230000  1
  O  O106  1  0.51745000  0.08050000  0.88460000  1
  O  O107  1  0.33573000  0.07954000  0.00000000  1
  O  O108  1  0.82078000  0.86600000  0.84004000  1
  O  O109  1  0.75825000  0.75960000  0.91230000  1
  O  O110  1  0.59795000  0.91950000  0.88460000  1
  O  O111  1  0.66427000  0.92046000  0.00000000  1
  O  O112  1  0.52682000  0.13400000  0.15996000  1
  O  O113  1  0.43015000  0.24040000  0.08770000  1
  O  O114  1  0.40205000  0.08050000  0.11540000  1
  O  O115  1  0.58473000  0.07954000  0.00000000  1
  O  O116  1  0.68678000  0.13400000  0.84004000  1
  O  O117  1  0.51785000  0.24040000  0.91230000  1
  O  O118  1  0.66082000  0.86600000  0.15996000  1
  O  O119  1  0.67055000  0.75960000  0.08770000  1
  O  O120  1  0.17922000  0.13400000  0.15996000  1
  O  O121  1  0.24175000  0.24040000  0.08770000  1
  O  O122  1  0.47318000  0.86600000  0.84004000  1
  O  O123  1  0.56985000  0.75960000  0.91230000  1
  Zr  Zr124  1  0.58221000  0.83558000  0.00000000  1
  Zr  Zr125  1  0.31772000  0.00000000  0.11430000  1
  Zr  Zr126  1  0.41779000  0.16442000  0.00000000  1
  Zr  Zr127  1  0.43202000  0.00000000  0.88570000  1
  Zr  Zr128  1  0.68228000  0.00000000  0.88570000  1
  Zr  Zr129  1  0.56798000  0.00000000  0.11430000  1
