# generated using pymatgen
data_Zr18H211(C186O53)2
_symmetry_space_group_name_H-M   'P 1'
_cell_length_a   16.33570000
_cell_length_b   39.50500000
_cell_length_c   39.50500000
_cell_angle_alpha   120.00000000
_cell_angle_beta   90.00000000
_cell_angle_gamma   90.00000000
_symmetry_Int_Tables_number   1
_chemical_formula_structural   Zr18H211(C186O53)2
_chemical_formula_sum   'Zr18 H211 C372 O106'
_cell_volume   22078.64990751
_cell_formula_units_Z   1
loop_
 _symmetry_equiv_pos_site_id
 _symmetry_equiv_pos_as_xyz
  1  'x, y, z'
loop_
 _atom_site_type_symbol
 _atom_site_label
 _atom_site_symmetry_multiplicity
 _atom_site_fract_x
 _atom_site_fract_y
 _atom_site_fract_z
 _atom_site_occupancy
  Zr  Zr0  1  0.89212000  0.45546000  0.00000000  1
  Zr  Zr1  1  0.89212000  0.54454000  0.54454000  1
  Zr  Zr2  1  0.89212000  0.00000000  0.45546000  1
  Zr  Zr3  1  0.89212000  0.54454000  1.00000000  1
  Zr  Zr4  1  0.89212000  0.45546000  0.45546000  1
  Zr  Zr5  1  0.89212000  0.00000000  0.54454000  1
  Zr  Zr6  1  0.10788000  0.45546000  0.00000000  1
  Zr  Zr7  1  0.10788000  0.00000000  0.45546000  1
  Zr  Zr8  1  0.10788000  0.54454000  0.54454000  1
  Zr  Zr9  1  0.10788000  0.54454000  1.00000000  1
  Zr  Zr10  1  0.10788000  0.00000000  0.54454000  1
  Zr  Zr11  1  0.10788000  0.45546000  0.45546000  1
  Zr  Zr12  1  0.00000000  0.53561000  0.07122000  1
  Zr  Zr13  1  0.00000000  0.53561000  0.46439000  1
  Zr  Zr14  1  1.00000000  0.92878000  0.46439000  1
  Zr  Zr15  1  0.00000000  0.46439000  0.92878000  1
  Zr  Zr16  1  0.00000000  0.46439000  0.53561000  1
  Zr  Zr17  1  0.00000000  0.07122000  0.53561000  1
  H  H18  1  0.87594000  0.37163000  0.82885000  1
  H  H19  1  0.78826000  0.31777000  0.77650000  1
  H  H20  1  0.66624000  0.30120000  0.86469000  1
  H  H21  1  0.75265000  0.35237000  0.91664000  1
  H  H22  1  0.57246000  0.33577000  0.83969000  1
  H  H23  1  0.87594000  0.45722000  0.62837000  1
  H  H24  1  0.78826000  0.45873000  0.68224000  1
  H  H25  1  0.66624000  0.56349000  0.69880000  1
  H  H26  1  0.75265000  0.56427000  0.64763000  1
  H  H27  1  0.57246000  0.50392000  0.66423000  1
  H  H28  1  0.87594000  0.17115000  0.54278000  1
  H  H29  1  0.78826000  0.22351000  0.54128000  1
  H  H30  1  0.66624000  0.13531000  0.43651000  1
  H  H31  1  0.75265000  0.08336000  0.43573000  1
  H  H32  1  0.57246000  0.16031000  0.49608000  1
  H  H33  1  0.67899000  0.98951000  0.40322000  1
  H  H34  1  0.57655000  0.00681000  0.36633000  1
  H  H35  1  0.48560000  0.10322000  0.47720000  1
  H  H36  1  0.58733000  0.08558000  0.51398000  1
  H  H37  1  0.87594000  0.62837000  0.17115000  1
  H  H38  1  0.78826000  0.68223000  0.22350000  1
  H  H39  1  0.66624000  0.69880000  0.13531000  1
  H  H40  1  0.75265000  0.64763000  0.08336000  1
  H  H41  1  0.57246000  0.66423000  0.16031000  1
  H  H42  1  0.67899000  0.58629000  0.98951000  1
  H  H43  1  0.57655000  0.64048000  0.00681000  1
  H  H44  1  0.48560000  0.62602000  0.10321000  1
  H  H45  1  0.58733000  0.57160000  0.08558000  1
  H  H46  1  0.87594000  0.54278000  0.37163000  1
  H  H47  1  0.78826000  0.54127000  0.31776000  1
  H  H48  1  0.66624000  0.43651000  0.30120000  1
  H  H49  1  0.75265000  0.43573000  0.35237000  1
  H  H50  1  0.57246000  0.49608000  0.33577000  1
  H  H51  1  0.87594000  0.82885000  0.45722000  1
  H  H52  1  0.78826000  0.77649000  0.45872000  1
  H  H53  1  0.66624000  0.86469000  0.56349000  1
  H  H54  1  0.75265000  0.91664000  0.56427000  1
  H  H55  1  0.57246000  0.83969000  0.50392000  1
  H  H56  1  0.67899000  0.01049000  0.59678000  1
  H  H57  1  0.57655000  0.99319000  0.63367000  1
  H  H58  1  0.46545000  0.92319000  0.52794000  1
  H  H59  1  0.54926000  0.93780000  0.49786000  1
  H  H60  1  0.12406000  0.54278000  0.17115000  1
  H  H61  1  0.21174000  0.54127000  0.22350000  1
  H  H62  1  0.33376000  0.43651000  0.13531000  1
  H  H63  1  0.24735000  0.43573000  0.08336000  1
  H  H64  1  0.42754000  0.49608000  0.16031000  1
  H  H65  1  0.12406000  0.82885000  0.37163000  1
  H  H66  1  0.21174000  0.77649000  0.31776000  1
  H  H67  1  0.33376000  0.86469000  0.30120000  1
  H  H68  1  0.24735000  0.91664000  0.35237000  1
  H  H69  1  0.42754000  0.83969000  0.33577000  1
  H  H70  1  0.32101000  0.01049000  0.41371000  1
  H  H71  1  0.42345000  0.99319000  0.35952000  1
  H  H72  1  0.51440000  0.89678000  0.37397000  1
  H  H73  1  0.41267000  0.91442000  0.42840000  1
  H  H74  1  0.12406000  0.62837000  0.45722000  1
  H  H75  1  0.21174000  0.68223000  0.45872000  1
  H  H76  1  0.33376000  0.69880000  0.56349000  1
  H  H77  1  0.24735000  0.64763000  0.56427000  1
  H  H78  1  0.42754000  0.66423000  0.50392000  1
  H  H79  1  0.32834000  0.58775000  0.59401000  1
  H  H80  1  0.12406000  0.45722000  0.82885000  1
  H  H81  1  0.21174000  0.45873000  0.77650000  1
  H  H82  1  0.33376000  0.56349000  0.86469000  1
  H  H83  1  0.24735000  0.56427000  0.91664000  1
  H  H84  1  0.42754000  0.50392000  0.83969000  1
  H  H85  1  0.32101000  0.59678000  0.01049000  1
  H  H86  1  0.42345000  0.63367000  0.99319000  1
  H  H87  1  0.51440000  0.52281000  0.89679000  1
  H  H88  1  0.41267000  0.48602000  0.91442000  1
  H  H89  1  0.12406000  0.17115000  0.62837000  1
  H  H90  1  0.21174000  0.22351000  0.68224000  1
  H  H91  1  0.33376000  0.13531000  0.69880000  1
  H  H92  1  0.24735000  0.08336000  0.64763000  1
  H  H93  1  0.42754000  0.16031000  0.66423000  1
  H  H94  1  0.32101000  0.98951000  0.58629000  1
  H  H95  1  0.42345000  0.00681000  0.64048000  1
  H  H96  1  0.51440000  0.10322000  0.62603000  1
  H  H97  1  0.41267000  0.08558000  0.57160000  1
  H  H98  1  0.12406000  0.37163000  0.54278000  1
  H  H99  1  0.21174000  0.31777000  0.54128000  1
  H  H100  1  0.33376000  0.30120000  0.43651000  1
  H  H101  1  0.24735000  0.35237000  0.43573000  1
  H  H102  1  0.42754000  0.33577000  0.49608000  1
  H  H103  1  0.32834000  0.41225000  0.40599000  1
  H  H104  1  0.12406000  0.62837000  0.17115000  1
  H  H105  1  0.21174000  0.68223000  0.22350000  1
  H  H106  1  0.33376000  0.69880000  0.13531000  1
  H  H107  1  0.24735000  0.64763000  0.08336000  1
  H  H108  1  0.42481000  0.66488000  0.16089000  1
  H  H109  1  0.12406000  0.54278000  0.37163000  1
  H  H110  1  0.21174000  0.54127000  0.31776000  1
  H  H111  1  0.33376000  0.43651000  0.30120000  1
  H  H112  1  0.24735000  0.43573000  0.35237000  1
  H  H113  1  0.42481000  0.49601000  0.33512000  1
  H  H114  1  0.32101000  0.40322000  0.41371000  1
  H  H115  1  0.42345000  0.36633000  0.35952000  1
  H  H116  1  0.51440000  0.47719000  0.37397000  1
  H  H117  1  0.41267000  0.51398000  0.42840000  1
  H  H118  1  0.12406000  0.82885000  0.45722000  1
  H  H119  1  0.21174000  0.77649000  0.45872000  1
  H  H120  1  0.33376000  0.86469000  0.56349000  1
  H  H121  1  0.24735000  0.91664000  0.56427000  1
  H  H122  1  0.42481000  0.83911000  0.50399000  1
  H  H123  1  0.54377000  0.89075000  0.52989000  1
  H  H124  1  0.12406000  0.37163000  0.82885000  1
  H  H125  1  0.21174000  0.31777000  0.77650000  1
  H  H126  1  0.33376000  0.30120000  0.86469000  1
  H  H127  1  0.24735000  0.35237000  0.91664000  1
  H  H128  1  0.42481000  0.33512000  0.83911000  1
  H  H129  1  0.32101000  0.41371000  0.01049000  1
  H  H130  1  0.42345000  0.35952000  0.99319000  1
  H  H131  1  0.51440000  0.37398000  0.89679000  1
  H  H132  1  0.41267000  0.42840000  0.91442000  1
  H  H133  1  0.12406000  0.45722000  0.62837000  1
  H  H134  1  0.21174000  0.45873000  0.68224000  1
  H  H135  1  0.33376000  0.56349000  0.69880000  1
  H  H136  1  0.24735000  0.56427000  0.64763000  1
  H  H137  1  0.42481000  0.50399000  0.66488000  1
  H  H138  1  0.32101000  0.59678000  0.58629000  1
  H  H139  1  0.42345000  0.63367000  0.64048000  1
  H  H140  1  0.51440000  0.52281000  0.62603000  1
  H  H141  1  0.41267000  0.48602000  0.57160000  1
  H  H142  1  0.12406000  0.17115000  0.54278000  1
  H  H143  1  0.21174000  0.22351000  0.54128000  1
  H  H144  1  0.33376000  0.13531000  0.43651000  1
  H  H145  1  0.24735000  0.08336000  0.43573000  1
  H  H146  1  0.42481000  0.16089000  0.49601000  1
  H  H147  1  0.87594000  0.45722000  0.82885000  1
  H  H148  1  0.78826000  0.45873000  0.77650000  1
  H  H149  1  0.66624000  0.56349000  0.86469000  1
  H  H150  1  0.75265000  0.56427000  0.91664000  1
  H  H151  1  0.57519000  0.50399000  0.83911000  1
  H  H152  1  0.87594000  0.17115000  0.62837000  1
  H  H153  1  0.78826000  0.22351000  0.68224000  1
  H  H154  1  0.66624000  0.13531000  0.69880000  1
  H  H155  1  0.75265000  0.08336000  0.64763000  1
  H  H156  1  0.57519000  0.16089000  0.66488000  1
  H  H157  1  0.87594000  0.37163000  0.54278000  1
  H  H158  1  0.78826000  0.31777000  0.54128000  1
  H  H159  1  0.66624000  0.30120000  0.43651000  1
  H  H160  1  0.75265000  0.35237000  0.43573000  1
  H  H161  1  0.57519000  0.33512000  0.49601000  1
  H  H162  1  0.67899000  0.41371000  0.40322000  1
  H  H163  1  0.57655000  0.35952000  0.36633000  1
  H  H164  1  0.48560000  0.37398000  0.47720000  1
  H  H165  1  0.58733000  0.42840000  0.51398000  1
  H  H166  1  0.87594000  0.54278000  0.17115000  1
  H  H167  1  0.78826000  0.54127000  0.22350000  1
  H  H168  1  0.66624000  0.43651000  0.13531000  1
  H  H169  1  0.75265000  0.43573000  0.08336000  1
  H  H170  1  0.57519000  0.49601000  0.16089000  1
  H  H171  1  0.67899000  0.40322000  0.98951000  1
  H  H172  1  0.57655000  0.36633000  0.00681000  1
  H  H173  1  0.48560000  0.47719000  0.10321000  1
  H  H174  1  0.58733000  0.51398000  0.08558000  1
  H  H175  1  0.87594000  0.82885000  0.37163000  1
  H  H176  1  0.78826000  0.77649000  0.31776000  1
  H  H177  1  0.66624000  0.86469000  0.30120000  1
  H  H178  1  0.75265000  0.91664000  0.35237000  1
  H  H179  1  0.57519000  0.83911000  0.33512000  1
  H  H180  1  0.87594000  0.62837000  0.45722000  1
  H  H181  1  0.78826000  0.68223000  0.45872000  1
  H  H182  1  0.66624000  0.69880000  0.56349000  1
  H  H183  1  0.75265000  0.64763000  0.56427000  1
  H  H184  1  0.57519000  0.66488000  0.50399000  1
  H  H185  1  0.67899000  0.58629000  0.59678000  1
  H  H186  1  0.57655000  0.64048000  0.63367000  1
  H  H187  1  0.48560000  0.62602000  0.52280000  1
  H  H188  1  0.58733000  0.57160000  0.48602000  1
  H  H189  1  0.78297000  0.24656000  0.75407000  1
  H  H190  1  0.78297000  0.50751000  0.75407000  1
  H  H191  1  0.78297000  0.24656000  0.49249000  1
  H  H192  1  0.78297000  0.75344000  0.24593000  1
  H  H193  1  0.78297000  0.49249000  0.24656000  1
  H  H194  1  0.78297000  0.75407000  0.50751000  1
  H  H195  1  0.21703000  0.49249000  0.24656000  1
  H  H196  1  0.21703000  0.75407000  0.24656000  1
  H  H197  1  0.21703000  0.75344000  0.50751000  1
  H  H198  1  0.21703000  0.50751000  0.75407000  1
  H  H199  1  0.21703000  0.24656000  0.75407000  1
  H  H200  1  0.21703000  0.24656000  0.49249000  1
  H  H201  1  0.62394000  0.36479000  0.27992000  1
  H  H202  1  0.37606000  0.27992000  0.36479000  1
  H  H203  1  0.62394000  0.63521000  0.72008000  1
  H  H204  1  0.37606000  0.72008000  0.63521000  1
  H  H205  1  0.62394000  0.63521000  0.91513000  1
  H  H206  1  0.37606000  0.72008000  0.08487000  1
  H  H207  1  0.62394000  0.27992000  0.91513000  1
  H  H208  1  0.37606000  0.36479000  0.08487000  1
  H  H209  1  0.62394000  0.08487000  0.72008000  1
  H  H210  1  0.37606000  0.91513000  0.63521000  1
  H  H211  1  0.37606000  0.08487000  0.36479000  1
  H  H212  1  0.62394000  0.91513000  0.27992000  1
  H  H213  1  0.57680000  0.62813000  0.63793000  1
  H  H214  1  0.42320000  0.36207000  0.37187000  1
  H  H215  1  0.42320000  0.99020000  0.62813000  1
  H  H216  1  0.62717000  0.90614000  0.50150000  1
  H  H217  1  0.90280000  0.36676000  0.98378000  1
  H  H218  1  0.90280000  0.56836000  0.58458000  1
  H  H219  1  0.90280000  0.96756000  0.38298000  1
  H  H220  1  0.90280000  0.56836000  0.98378000  1
  H  H221  1  0.90280000  0.36676000  0.38298000  1
  H  H222  1  0.90280000  0.96756000  0.58458000  1
  H  H223  1  0.09720000  0.36676000  0.98378000  1
  H  H224  1  0.09720000  0.96756000  0.38298000  1
  H  H225  1  0.09720000  0.56836000  0.58458000  1
  H  H226  1  0.09720000  0.56836000  0.98378000  1
  H  H227  1  0.09720000  0.96756000  0.58458000  1
  H  H228  1  0.09720000  0.36676000  0.38298000  1
  C  C229  1  0.86820000  0.39790000  0.90510000  1
  C  C230  1  0.81760000  0.36620000  0.87540000  1
  C  C231  1  0.82810000  0.35600000  0.83710000  1
  C  C232  1  0.78000000  0.32650000  0.80850000  1
  C  C233  1  0.72300000  0.30750000  0.81730000  1
  C  C234  1  0.71350000  0.31720000  0.85660000  1
  C  C235  1  0.75990000  0.34540000  0.88510000  1
  C  C236  1  0.67090000  0.27540000  0.78370000  1
  C  C237  1  0.58810000  0.27620000  0.78670000  1
  C  C238  1  0.54030000  0.30880000  0.81570000  1
  C  C239  1  0.86820000  0.50720000  0.60210000  1
  C  C240  1  0.81760000  0.50920000  0.63380000  1
  C  C241  1  0.82810000  0.48110000  0.64400000  1
  C  C242  1  0.78000000  0.48200000  0.67350000  1
  C  C243  1  0.72300000  0.50980000  0.69250000  1
  C  C244  1  0.71350000  0.53940000  0.68280000  1
  C  C245  1  0.75990000  0.53970000  0.65460000  1
  C  C246  1  0.67090000  0.50830000  0.72460000  1
  C  C247  1  0.58810000  0.51050000  0.72380000  1
  C  C248  1  0.54030000  0.50690000  0.69120000  1
  C  C249  1  0.86820000  0.09490000  0.49280000  1
  C  C250  1  0.81760000  0.12460000  0.49080000  1
  C  C251  1  0.82810000  0.16290000  0.51890000  1
  C  C252  1  0.78000000  0.19150000  0.51800000  1
  C  C253  1  0.72300000  0.18270000  0.49020000  1
  C  C254  1  0.71350000  0.14340000  0.46060000  1
  C  C255  1  0.75990000  0.11490000  0.46030000  1
  C  C256  1  0.67090000  0.21630000  0.49170000  1
  C  C257  1  0.58810000  0.21330000  0.48950000  1
  C  C258  1  0.54030000  0.18430000  0.49310000  1
  C  C259  1  0.69980000  0.02680000  0.48400000  1
  C  C260  1  0.63840000  0.03670000  0.46040000  1
  C  C261  1  0.63530000  0.01510000  0.41990000  1
  C  C262  1  0.57900000  0.02460000  0.39960000  1
  C  C263  1  0.52570000  0.05580000  0.41990000  1
  C  C264  1  0.52900000  0.07750000  0.46050000  1
  C  C265  1  0.58500000  0.06790000  0.48070000  1
  C  C266  1  0.46500000  0.06590000  0.39760000  1
  C  C267  1  0.42000000  0.07550000  0.38100000  1
  C  C268  1  0.86820000  0.60210000  0.09490000  1
  C  C269  1  0.81760000  0.63380000  0.12460000  1
  C  C270  1  0.82810000  0.64400000  0.16290000  1
  C  C271  1  0.78000000  0.67350000  0.19150000  1
  C  C272  1  0.72300000  0.69250000  0.18270000  1
  C  C273  1  0.71350000  0.68280000  0.14340000  1
  C  C274  1  0.75990000  0.65460000  0.11490000  1
  C  C275  1  0.67090000  0.72460000  0.21630000  1
  C  C276  1  0.58810000  0.72380000  0.21330000  1
  C  C277  1  0.54030000  0.69120000  0.18430000  1
  C  C278  1  0.69980000  0.54280000  0.02680000  1
  C  C279  1  0.63840000  0.57630000  0.03670000  1
  C  C280  1  0.63530000  0.59520000  0.01510000  1
  C  C281  1  0.57900000  0.62500000  0.02460000  1
  C  C282  1  0.52570000  0.63590000  0.05580000  1
  C  C283  1  0.52900000  0.61700000  0.07750000  1
  C  C284  1  0.58500000  0.58720000  0.06790000  1
  C  C285  1  0.46500000  0.66830000  0.06590000  1
  C  C286  1  0.42000000  0.69450000  0.07550000  1
  C  C287  1  0.86820000  0.49280000  0.39790000  1
  C  C288  1  0.81760000  0.49080000  0.36620000  1
  C  C289  1  0.82810000  0.51890000  0.35600000  1
  C  C290  1  0.78000000  0.51800000  0.32650000  1
  C  C291  1  0.72300000  0.49020000  0.30750000  1
  C  C292  1  0.71350000  0.46060000  0.31720000  1
  C  C293  1  0.75990000  0.46030000  0.34540000  1
  C  C294  1  0.67090000  0.49170000  0.27540000  1
  C  C295  1  0.58810000  0.48950000  0.27620000  1
  C  C296  1  0.54030000  0.49310000  0.30880000  1
  C  C297  1  0.86820000  0.90510000  0.50720000  1
  C  C298  1  0.81760000  0.87540000  0.50920000  1
  C  C299  1  0.82810000  0.83710000  0.48110000  1
  C  C300  1  0.78000000  0.80850000  0.48200000  1
  C  C301  1  0.72300000  0.81730000  0.50980000  1
  C  C302  1  0.71350000  0.85660000  0.53940000  1
  C  C303  1  0.75990000  0.88510000  0.53970000  1
  C  C304  1  0.67090000  0.78370000  0.50830000  1
  C  C305  1  0.58810000  0.78670000  0.51050000  1
  C  C306  1  0.54030000  0.81570000  0.50690000  1
  C  C307  1  0.69980000  0.97320000  0.51600000  1
  C  C308  1  0.63840000  0.96330000  0.53960000  1
  C  C309  1  0.63530000  0.98490000  0.58010000  1
  C  C310  1  0.57900000  0.97540000  0.60040000  1
  C  C311  1  0.52570000  0.94420000  0.58010000  1
  C  C312  1  0.52900000  0.92250000  0.53950000  1
  C  C313  1  0.58500000  0.93210000  0.51930000  1
  C  C314  1  0.46500000  0.93410000  0.60240000  1
  C  C315  1  0.42000000  0.92450000  0.61900000  1
  C  C316  1  0.13180000  0.49280000  0.09490000  1
  C  C317  1  0.18240000  0.49080000  0.12460000  1
  C  C318  1  0.17190000  0.51890000  0.16290000  1
  C  C319  1  0.22000000  0.51800000  0.19150000  1
  C  C320  1  0.27700000  0.49020000  0.18270000  1
  C  C321  1  0.28650000  0.46060000  0.14340000  1
  C  C322  1  0.24010000  0.46030000  0.11490000  1
  C  C323  1  0.32910000  0.49170000  0.21630000  1
  C  C324  1  0.41190000  0.48950000  0.21330000  1
  C  C325  1  0.45970000  0.49310000  0.18430000  1
  C  C326  1  0.13180000  0.90510000  0.39790000  1
  C  C327  1  0.18240000  0.87540000  0.36620000  1
  C  C328  1  0.17190000  0.83710000  0.35600000  1
  C  C329  1  0.22000000  0.80850000  0.32650000  1
  C  C330  1  0.27700000  0.81730000  0.30750000  1
  C  C331  1  0.28650000  0.85660000  0.31720000  1
  C  C332  1  0.24010000  0.88510000  0.34540000  1
  C  C333  1  0.32910000  0.78370000  0.27540000  1
  C  C334  1  0.41190000  0.78670000  0.27620000  1
  C  C335  1  0.45970000  0.81570000  0.30880000  1
  C  C336  1  0.30020000  0.97320000  0.45720000  1
  C  C337  1  0.36160000  0.96330000  0.42370000  1
  C  C338  1  0.36470000  0.98490000  0.40480000  1
  C  C339  1  0.42100000  0.97540000  0.37500000  1
  C  C340  1  0.47430000  0.94420000  0.36410000  1
  C  C341  1  0.47100000  0.92250000  0.38300000  1
  C  C342  1  0.41500000  0.93210000  0.41280000  1
  C  C343  1  0.53500000  0.93410000  0.33170000  1
  C  C344  1  0.58000000  0.92450000  0.30550000  1
  C  C345  1  0.13180000  0.60210000  0.50720000  1
  C  C346  1  0.18240000  0.63380000  0.50920000  1
  C  C347  1  0.17190000  0.64400000  0.48110000  1
  C  C348  1  0.22000000  0.67350000  0.48200000  1
  C  C349  1  0.27700000  0.69250000  0.50980000  1
  C  C350  1  0.28650000  0.68280000  0.53940000  1
  C  C351  1  0.24010000  0.65460000  0.53970000  1
  C  C352  1  0.32910000  0.72460000  0.50830000  1
  C  C353  1  0.41190000  0.72380000  0.51050000  1
  C  C354  1  0.45970000  0.69120000  0.50690000  1
  C  C355  1  0.13180000  0.50720000  0.90510000  1
  C  C356  1  0.18240000  0.50920000  0.87540000  1
  C  C357  1  0.17190000  0.48110000  0.83710000  1
  C  C358  1  0.22000000  0.48200000  0.80850000  1
  C  C359  1  0.27700000  0.50980000  0.81730000  1
  C  C360  1  0.28650000  0.53940000  0.85660000  1
  C  C361  1  0.24010000  0.53970000  0.88510000  1
  C  C362  1  0.32910000  0.50830000  0.78370000  1
  C  C363  1  0.41190000  0.51050000  0.78670000  1
  C  C364  1  0.45970000  0.50690000  0.81570000  1
  C  C365  1  0.30020000  0.51600000  0.97320000  1
  C  C366  1  0.36160000  0.53960000  0.96330000  1
  C  C367  1  0.36470000  0.58010000  0.98490000  1
  C  C368  1  0.42100000  0.60040000  0.97540000  1
  C  C369  1  0.47430000  0.58010000  0.94420000  1
  C  C370  1  0.47100000  0.53950000  0.92250000  1
  C  C371  1  0.41500000  0.51930000  0.93210000  1
  C  C372  1  0.53500000  0.60240000  0.93410000  1
  C  C373  1  0.58000000  0.61900000  0.92450000  1
  C  C374  1  0.13180000  0.09490000  0.60210000  1
  C  C375  1  0.18240000  0.12460000  0.63380000  1
  C  C376  1  0.17190000  0.16290000  0.64400000  1
  C  C377  1  0.22000000  0.19150000  0.67350000  1
  C  C378  1  0.27700000  0.18270000  0.69250000  1
  C  C379  1  0.28650000  0.14340000  0.68280000  1
  C  C380  1  0.24010000  0.11490000  0.65460000  1
  C  C381  1  0.32910000  0.21630000  0.72460000  1
  C  C382  1  0.41190000  0.21330000  0.72380000  1
  C  C383  1  0.45970000  0.18430000  0.69120000  1
  C  C384  1  0.30020000  0.02680000  0.54280000  1
  C  C385  1  0.36160000  0.03670000  0.57630000  1
  C  C386  1  0.36470000  0.01510000  0.59520000  1
  C  C387  1  0.42100000  0.02460000  0.62500000  1
  C  C388  1  0.47430000  0.05580000  0.63590000  1
  C  C389  1  0.47100000  0.07750000  0.61700000  1
  C  C390  1  0.41500000  0.06790000  0.58720000  1
  C  C391  1  0.53500000  0.06590000  0.66830000  1
  C  C392  1  0.58000000  0.07550000  0.69450000  1
  C  C393  1  0.13180000  0.39790000  0.49280000  1
  C  C394  1  0.18240000  0.36620000  0.49080000  1
  C  C395  1  0.17190000  0.35600000  0.51890000  1
  C  C396  1  0.22000000  0.32650000  0.51800000  1
  C  C397  1  0.27700000  0.30750000  0.49020000  1
  C  C398  1  0.28650000  0.31720000  0.46060000  1
  C  C399  1  0.24010000  0.34540000  0.46030000  1
  C  C400  1  0.32910000  0.27540000  0.49170000  1
  C  C401  1  0.41190000  0.27620000  0.48950000  1
  C  C402  1  0.45970000  0.30880000  0.49310000  1
  C  C403  1  0.13180000  0.60210000  0.09490000  1
  C  C404  1  0.18240000  0.63380000  0.12460000  1
  C  C405  1  0.17190000  0.64400000  0.16290000  1
  C  C406  1  0.22000000  0.67350000  0.19150000  1
  C  C407  1  0.27700000  0.69250000  0.18270000  1
  C  C408  1  0.28650000  0.68280000  0.14340000  1
  C  C409  1  0.24010000  0.65460000  0.11490000  1
  C  C410  1  0.32910000  0.72460000  0.21630000  1
  C  C411  1  0.41190000  0.72380000  0.21330000  1
  C  C412  1  0.45970000  0.69120000  0.18430000  1
  C  C413  1  0.13180000  0.49280000  0.39790000  1
  C  C414  1  0.18240000  0.49080000  0.36620000  1
  C  C415  1  0.17190000  0.51890000  0.35600000  1
  C  C416  1  0.22000000  0.51800000  0.32650000  1
  C  C417  1  0.27700000  0.49020000  0.30750000  1
  C  C418  1  0.28650000  0.46060000  0.31720000  1
  C  C419  1  0.24010000  0.46030000  0.34540000  1
  C  C420  1  0.32910000  0.49170000  0.27540000  1
  C  C421  1  0.41190000  0.48950000  0.27620000  1
  C  C422  1  0.45970000  0.49310000  0.30880000  1
  C  C423  1  0.30020000  0.48400000  0.45720000  1
  C  C424  1  0.36160000  0.46040000  0.42370000  1
  C  C425  1  0.36470000  0.41990000  0.40480000  1
  C  C426  1  0.42100000  0.39960000  0.37500000  1
  C  C427  1  0.47430000  0.41990000  0.36410000  1
  C  C428  1  0.47100000  0.46050000  0.38300000  1
  C  C429  1  0.41500000  0.48070000  0.41280000  1
  C  C430  1  0.53500000  0.39760000  0.33170000  1
  C  C431  1  0.58000000  0.38100000  0.30550000  1
  C  C432  1  0.13180000  0.90510000  0.50720000  1
  C  C433  1  0.18240000  0.87540000  0.50920000  1
  C  C434  1  0.17190000  0.83710000  0.48110000  1
  C  C435  1  0.22000000  0.80850000  0.48200000  1
  C  C436  1  0.27700000  0.81730000  0.50980000  1
  C  C437  1  0.28650000  0.85660000  0.53940000  1
  C  C438  1  0.24010000  0.88510000  0.53970000  1
  C  C439  1  0.32910000  0.78370000  0.50830000  1
  C  C440  1  0.41190000  0.78670000  0.51050000  1
  C  C441  1  0.45970000  0.81570000  0.50690000  1
  C  C442  1  0.13180000  0.39790000  0.90510000  1
  C  C443  1  0.18240000  0.36620000  0.87540000  1
  C  C444  1  0.17190000  0.35600000  0.83710000  1
  C  C445  1  0.22000000  0.32650000  0.80850000  1
  C  C446  1  0.27700000  0.30750000  0.81730000  1
  C  C447  1  0.28650000  0.31720000  0.85660000  1
  C  C448  1  0.24010000  0.34540000  0.88510000  1
  C  C449  1  0.32910000  0.27540000  0.78370000  1
  C  C450  1  0.41190000  0.27620000  0.78670000  1
  C  C451  1  0.45970000  0.30880000  0.81570000  1
  C  C452  1  0.30020000  0.45720000  0.97320000  1
  C  C453  1  0.36160000  0.42370000  0.96330000  1
  C  C454  1  0.36470000  0.40480000  0.98490000  1
  C  C455  1  0.42100000  0.37500000  0.97540000  1
  C  C456  1  0.47430000  0.36410000  0.94420000  1
  C  C457  1  0.47100000  0.38300000  0.92250000  1
  C  C458  1  0.41500000  0.41280000  0.93210000  1
  C  C459  1  0.53500000  0.33170000  0.93410000  1
  C  C460  1  0.58000000  0.30550000  0.92450000  1
  C  C461  1  0.13180000  0.50720000  0.60210000  1
  C  C462  1  0.18240000  0.50920000  0.63380000  1
  C  C463  1  0.17190000  0.48110000  0.64400000  1
  C  C464  1  0.22000000  0.48200000  0.67350000  1
  C  C465  1  0.27700000  0.50980000  0.69250000  1
  C  C466  1  0.28650000  0.53940000  0.68280000  1
  C  C467  1  0.24010000  0.53970000  0.65460000  1
  C  C468  1  0.32910000  0.50830000  0.72460000  1
  C  C469  1  0.41190000  0.51050000  0.72380000  1
  C  C470  1  0.45970000  0.50690000  0.69120000  1
  C  C471  1  0.30020000  0.51600000  0.54280000  1
  C  C472  1  0.36160000  0.53960000  0.57630000  1
  C  C473  1  0.36470000  0.58010000  0.59520000  1
  C  C474  1  0.42100000  0.60040000  0.62500000  1
  C  C475  1  0.47430000  0.58010000  0.63590000  1
  C  C476  1  0.47100000  0.53950000  0.61700000  1
  C  C477  1  0.41500000  0.51930000  0.58720000  1
  C  C478  1  0.53500000  0.60240000  0.66830000  1
  C  C479  1  0.58000000  0.61900000  0.69450000  1
  C  C480  1  0.13180000  0.09490000  0.49280000  1
  C  C481  1  0.18240000  0.12460000  0.49080000  1
  C  C482  1  0.17190000  0.16290000  0.51890000  1
  C  C483  1  0.22000000  0.19150000  0.51800000  1
  C  C484  1  0.27700000  0.18270000  0.49020000  1
  C  C485  1  0.28650000  0.14340000  0.46060000  1
  C  C486  1  0.24010000  0.11490000  0.46030000  1
  C  C487  1  0.32910000  0.21630000  0.49170000  1
  C  C488  1  0.41190000  0.21330000  0.48950000  1
  C  C489  1  0.45970000  0.18430000  0.49310000  1
  C  C490  1  0.86820000  0.50720000  0.90510000  1
  C  C491  1  0.81760000  0.50920000  0.87540000  1
  C  C492  1  0.82810000  0.48110000  0.83710000  1
  C  C493  1  0.78000000  0.48200000  0.80850000  1
  C  C494  1  0.72300000  0.50980000  0.81730000  1
  C  C495  1  0.71350000  0.53940000  0.85660000  1
  C  C496  1  0.75990000  0.53970000  0.88510000  1
  C  C497  1  0.67090000  0.50830000  0.78370000  1
  C  C498  1  0.58810000  0.51050000  0.78670000  1
  C  C499  1  0.54030000  0.50690000  0.81570000  1
  C  C500  1  0.86820000  0.09490000  0.60210000  1
  C  C501  1  0.81760000  0.12460000  0.63380000  1
  C  C502  1  0.82810000  0.16290000  0.64400000  1
  C  C503  1  0.78000000  0.19150000  0.67350000  1
  C  C504  1  0.72300000  0.18270000  0.69250000  1
  C  C505  1  0.71350000  0.14340000  0.68280000  1
  C  C506  1  0.75990000  0.11490000  0.65460000  1
  C  C507  1  0.67090000  0.21630000  0.72460000  1
  C  C508  1  0.58810000  0.21330000  0.72380000  1
  C  C509  1  0.54030000  0.18430000  0.69120000  1
  C  C510  1  0.86820000  0.39790000  0.49280000  1
  C  C511  1  0.81760000  0.36620000  0.49080000  1
  C  C512  1  0.82810000  0.35600000  0.51890000  1
  C  C513  1  0.78000000  0.32650000  0.51800000  1
  C  C514  1  0.72300000  0.30750000  0.49020000  1
  C  C515  1  0.71350000  0.31720000  0.46060000  1
  C  C516  1  0.75990000  0.34540000  0.46030000  1
  C  C517  1  0.67090000  0.27540000  0.49170000  1
  C  C518  1  0.58810000  0.27620000  0.48950000  1
  C  C519  1  0.54030000  0.30880000  0.49310000  1
  C  C520  1  0.69980000  0.45720000  0.48400000  1
  C  C521  1  0.63840000  0.42370000  0.46040000  1
  C  C522  1  0.63530000  0.40480000  0.41990000  1
  C  C523  1  0.57900000  0.37500000  0.39960000  1
  C  C524  1  0.52570000  0.36410000  0.41990000  1
  C  C525  1  0.52900000  0.38300000  0.46050000  1
  C  C526  1  0.58500000  0.41280000  0.48070000  1
  C  C527  1  0.46500000  0.33170000  0.39760000  1
  C  C528  1  0.42000000  0.30550000  0.38100000  1
  C  C529  1  0.86820000  0.49280000  0.09490000  1
  C  C530  1  0.81760000  0.49080000  0.12460000  1
  C  C531  1  0.82810000  0.51890000  0.16290000  1
  C  C532  1  0.78000000  0.51800000  0.19150000  1
  C  C533  1  0.72300000  0.49020000  0.18270000  1
  C  C534  1  0.71350000  0.46060000  0.14340000  1
  C  C535  1  0.75990000  0.46030000  0.11490000  1
  C  C536  1  0.67090000  0.49170000  0.21630000  1
  C  C537  1  0.58810000  0.48950000  0.21330000  1
  C  C538  1  0.54030000  0.49310000  0.18430000  1
  C  C539  1  0.69980000  0.48400000  0.02680000  1
  C  C540  1  0.63840000  0.46040000  0.03670000  1
  C  C541  1  0.63530000  0.41990000  0.01510000  1
  C  C542  1  0.57900000  0.39960000  0.02460000  1
  C  C543  1  0.52570000  0.41990000  0.05580000  1
  C  C544  1  0.52900000  0.46050000  0.07750000  1
  C  C545  1  0.58500000  0.48070000  0.06790000  1
  C  C546  1  0.46500000  0.39760000  0.06590000  1
  C  C547  1  0.42000000  0.38100000  0.07550000  1
  C  C548  1  0.86820000  0.90510000  0.39790000  1
  C  C549  1  0.81760000  0.87540000  0.36620000  1
  C  C550  1  0.82810000  0.83710000  0.35600000  1
  C  C551  1  0.78000000  0.80850000  0.32650000  1
  C  C552  1  0.72300000  0.81730000  0.30750000  1
  C  C553  1  0.71350000  0.85660000  0.31720000  1
  C  C554  1  0.75990000  0.88510000  0.34540000  1
  C  C555  1  0.67090000  0.78370000  0.27540000  1
  C  C556  1  0.58810000  0.78670000  0.27620000  1
  C  C557  1  0.54030000  0.81570000  0.30880000  1
  C  C558  1  0.86820000  0.60210000  0.50720000  1
  C  C559  1  0.81760000  0.63380000  0.50920000  1
  C  C560  1  0.82810000  0.64400000  0.48110000  1
  C  C561  1  0.78000000  0.67350000  0.48200000  1
  C  C562  1  0.72300000  0.69250000  0.50980000  1
  C  C563  1  0.71350000  0.68280000  0.53940000  1
  C  C564  1  0.75990000  0.65460000  0.53970000  1
  C  C565  1  0.67090000  0.72460000  0.50830000  1
  C  C566  1  0.58810000  0.72380000  0.51050000  1
  C  C567  1  0.54030000  0.69120000  0.50690000  1
  C  C568  1  0.69980000  0.54280000  0.51600000  1
  C  C569  1  0.63840000  0.57630000  0.53960000  1
  C  C570  1  0.63530000  0.59520000  0.58010000  1
  C  C571  1  0.57900000  0.62500000  0.60040000  1
  C  C572  1  0.52570000  0.63590000  0.58010000  1
  C  C573  1  0.52900000  0.61700000  0.53950000  1
  C  C574  1  0.58500000  0.58720000  0.51930000  1
  C  C575  1  0.46500000  0.66830000  0.60240000  1
  C  C576  1  0.42000000  0.69450000  0.61900000  1
  C  C577  1  0.71320000  0.24600000  0.75400000  1
  C  C578  1  0.54370000  0.24575000  0.75425000  1
  C  C579  1  0.71320000  0.50800000  0.75400000  1
  C  C580  1  0.54370000  0.50850000  0.75425000  1
  C  C581  1  0.71320000  0.24600000  0.49200000  1
  C  C582  1  0.54370000  0.24575000  0.49150000  1
  C  C583  1  0.71320000  0.75400000  0.24600000  1
  C  C584  1  0.54370000  0.75425000  0.24575000  1
  C  C585  1  0.71320000  0.49200000  0.24600000  1
  C  C586  1  0.54370000  0.49150000  0.24575000  1
  C  C587  1  0.71320000  0.75400000  0.50800000  1
  C  C588  1  0.54370000  0.75425000  0.50850000  1
  C  C589  1  0.28680000  0.49200000  0.24600000  1
  C  C590  1  0.45630000  0.49150000  0.24575000  1
  C  C591  1  0.28680000  0.75400000  0.24600000  1
  C  C592  1  0.45630000  0.75425000  0.24575000  1
  C  C593  1  0.28680000  0.75400000  0.50800000  1
  C  C594  1  0.45630000  0.75425000  0.50850000  1
  C  C595  1  0.28680000  0.50800000  0.75400000  1
  C  C596  1  0.45630000  0.50850000  0.75425000  1
  C  C597  1  0.28680000  0.24600000  0.75400000  1
  C  C598  1  0.45630000  0.24575000  0.75425000  1
  C  C599  1  0.28680000  0.24600000  0.49200000  1
  C  C600  1  0.45630000  0.24575000  0.49150000  1
  O  O601  1  0.91710000  0.41380000  0.89540000  1
  O  O602  1  0.85000000  0.40740000  0.94050000  1
  O  O603  1  0.91710000  0.48160000  0.58620000  1
  O  O604  1  0.85000000  0.53310000  0.59260000  1
  O  O605  1  0.91710000  0.10460000  0.51840000  1
  O  O606  1  0.85000000  0.05950000  0.46690000  1
  O  O607  1  0.70600000  0.05200000  0.52400000  1
  O  O608  1  0.91710000  0.58620000  0.10460000  1
  O  O609  1  0.85000000  0.59260000  0.05950000  1
  O  O610  1  0.70600000  0.52800000  0.05200000  1
  O  O611  1  0.91710000  0.51840000  0.41380000  1
  O  O612  1  0.85000000  0.46690000  0.40740000  1
  O  O613  1  0.91710000  0.89540000  0.48160000  1
  O  O614  1  0.85000000  0.94050000  0.53310000  1
  O  O615  1  0.70600000  0.94800000  0.47600000  1
  O  O616  1  0.08290000  0.51840000  0.10460000  1
  O  O617  1  0.15000000  0.46690000  0.05950000  1
  O  O618  1  0.08290000  0.89540000  0.41380000  1
  O  O619  1  0.15000000  0.94050000  0.40740000  1
  O  O620  1  0.29400000  0.94800000  0.47200000  1
  O  O621  1  0.08290000  0.58620000  0.48160000  1
  O  O622  1  0.15000000  0.59260000  0.53310000  1
  O  O623  1  0.08290000  0.48160000  0.89540000  1
  O  O624  1  0.15000000  0.53310000  0.94050000  1
  O  O625  1  0.08290000  0.10460000  0.58620000  1
  O  O626  1  0.15000000  0.05950000  0.59260000  1
  O  O627  1  0.29400000  0.05200000  0.52800000  1
  O  O628  1  0.08290000  0.41380000  0.51840000  1
  O  O629  1  0.15000000  0.40740000  0.46690000  1
  O  O630  1  0.08290000  0.58620000  0.10460000  1
  O  O631  1  0.15000000  0.59260000  0.05950000  1
  O  O632  1  0.08290000  0.51840000  0.41380000  1
  O  O633  1  0.15000000  0.46690000  0.40740000  1
  O  O634  1  0.29400000  0.52400000  0.47200000  1
  O  O635  1  0.08290000  0.89540000  0.48160000  1
  O  O636  1  0.15000000  0.94050000  0.53310000  1
  O  O637  1  0.08290000  0.41380000  0.89540000  1
  O  O638  1  0.15000000  0.40740000  0.94050000  1
  O  O639  1  0.29400000  0.47200000  0.94800000  1
  O  O640  1  0.08290000  0.48160000  0.58620000  1
  O  O641  1  0.15000000  0.53310000  0.59260000  1
  O  O642  1  0.29400000  0.47600000  0.52800000  1
  O  O643  1  0.08290000  0.10460000  0.51840000  1
  O  O644  1  0.15000000  0.05950000  0.46690000  1
  O  O645  1  0.91710000  0.48160000  0.89540000  1
  O  O646  1  0.85000000  0.53310000  0.94050000  1
  O  O647  1  0.91710000  0.10460000  0.58620000  1
  O  O648  1  0.85000000  0.05950000  0.59260000  1
  O  O649  1  0.91710000  0.41380000  0.51840000  1
  O  O650  1  0.85000000  0.40740000  0.46690000  1
  O  O651  1  0.70600000  0.47200000  0.52400000  1
  O  O652  1  0.91710000  0.51840000  0.10460000  1
  O  O653  1  0.85000000  0.46690000  0.05950000  1
  O  O654  1  0.91710000  0.89540000  0.41380000  1
  O  O655  1  0.85000000  0.94050000  0.40740000  1
  O  O656  1  0.91710000  0.58620000  0.48160000  1
  O  O657  1  0.85000000  0.59260000  0.53310000  1
  O  O658  1  0.70600000  0.52800000  0.47600000  1
  O  O659  1  0.00000000  0.47000000  0.03520000  1
  O  O660  1  1.00000000  0.56520000  0.53000000  1
  O  O661  1  1.00000000  0.96480000  0.43480000  1
  O  O662  1  0.00000000  0.53000000  0.96480000  1
  O  O663  1  0.00000000  0.43480000  0.47000000  1
  O  O664  1  0.00000000  0.03520000  0.56520000  1
  O  O665  1  0.00000000  0.43480000  0.96480000  1
  O  O666  1  0.00000000  0.03520000  0.47000000  1
  O  O667  1  0.00000000  0.53000000  0.56520000  1
  O  O668  1  0.00000000  0.56520000  0.03520000  1
  O  O669  1  0.00000000  0.96480000  0.53000000  1
  O  O670  1  1.00000000  0.47000000  0.43480000  1
  O  O671  1  0.89240000  0.51780000  0.03560000  1
  O  O672  1  0.89240000  0.51780000  0.48220000  1
  O  O673  1  0.89240000  0.96440000  0.48220000  1
  O  O674  1  0.89240000  0.48220000  0.96440000  1
  O  O675  1  0.89240000  0.48220000  0.51780000  1
  O  O676  1  0.89240000  0.03560000  0.51780000  1
  O  O677  1  0.10760000  0.48220000  0.96440000  1
  O  O678  1  0.10760000  0.48220000  0.51780000  1
  O  O679  1  0.10760000  0.51780000  0.03560000  1
  O  O680  1  0.10760000  0.96440000  0.48220000  1
  O  O681  1  0.90280000  0.39920000  0.00000000  1
  O  O682  1  0.75660000  0.45990000  0.00000000  1
  O  O683  1  0.90280000  0.60080000  0.60080000  1
  O  O684  1  0.75660000  0.54010000  0.54010000  1
  O  O685  1  0.90280000  0.00000000  0.39920000  1
  O  O686  1  0.75660000  0.00000000  0.45990000  1
  O  O687  1  0.90280000  0.60080000  1.00000000  1
  O  O688  1  0.75660000  0.54010000  0.00000000  1
  O  O689  1  0.90280000  0.39920000  0.39920000  1
  O  O690  1  0.75660000  0.45990000  0.45990000  1
  O  O691  1  0.90280000  0.00000000  0.60080000  1
  O  O692  1  0.75660000  0.00000000  0.54010000  1
  O  O693  1  0.09720000  0.39920000  0.00000000  1
  O  O694  1  0.24340000  0.45990000  0.00000000  1
  O  O695  1  0.09720000  0.00000000  0.39920000  1
  O  O696  1  0.24340000  0.00000000  0.45990000  1
  O  O697  1  0.09720000  0.60080000  0.60080000  1
  O  O698  1  0.24340000  0.54010000  0.54010000  1
  O  O699  1  0.09720000  0.60080000  1.00000000  1
  O  O700  1  0.24340000  0.54010000  0.00000000  1
  O  O701  1  0.09720000  0.00000000  0.60080000  1
  O  O702  1  0.24340000  0.00000000  0.54010000  1
  O  O703  1  0.09720000  0.39920000  0.39920000  1
  O  O704  1  0.24340000  0.45990000  0.45990000  1
  O  O705  1  0.10760000  0.03560000  0.51780000  1
  O  O706  1  0.10760000  0.51780000  0.48220000  1
