# generated using pymatgen
data_Li4Zr2H2C16O33
_symmetry_space_group_name_H-M   'P 1'
_cell_length_a   8.53020000
_cell_length_b   8.59020000
_cell_length_c   16.15820000
_cell_angle_alpha   89.30900000
_cell_angle_beta   78.00400000
_cell_angle_gamma   68.81200000
_symmetry_Int_Tables_number   1
_chemical_formula_structural   Li4Zr2H2C16O33
_chemical_formula_sum   'Li4 Zr2 H2 C16 O33'
_cell_volume   1077.27787108
_cell_formula_units_Z   1
loop_
 _symmetry_equiv_pos_site_id
 _symmetry_equiv_pos_as_xyz
  1  'x, y, z'
loop_
 _atom_site_type_symbol
 _atom_site_label
 _atom_site_symmetry_multiplicity
 _atom_site_fract_x
 _atom_site_fract_y
 _atom_site_fract_z
 _atom_site_occupancy
  Li  Li0  1  0.47700000  0.20500000  0.85000000  1
  Li  Li1  1  0.82500000  0.18500000  0.32200000  1
  Li  Li2  1  0.14800000  0.21800000  0.37870000  1
  Li  Li3  1  0.46920000  0.24200000  0.37780000  1
  Zr  Zr4  1  0.59693000  0.73780000  0.58595000  1
  Zr  Zr5  1  0.37781000  0.65760000  0.11165000  1
  H  H6  1  0.44390000  0.27280000  0.52880000  1
  H  H7  1  0.31800000  0.42010000  0.50580000  1
  C  C8  1  0.44600000  0.01710000  0.71870000  1
  C  C9  1  0.81600000  0.43750000  0.46040000  1
  C  C10  1  0.94160000  0.45350000  0.50890000  1
  C  C11  1  0.49100000  0.52000000  0.72050000  1
  C  C12  1  0.65310000  0.95200000  0.70840000  1
  C  C13  1  0.46200000  0.96760000  0.45010000  1
  C  C14  1  0.64520000  0.96290000  0.44100000  1
  C  C15  1  0.33830000  0.57590000  0.67430000  1
  C  C16  1  0.51150000  0.43160000  0.24900000  1
  C  C17  1  0.16580000  0.96100000  0.23900000  1
  C  C18  1  0.32150000  0.43920000  0.25630000  1
  C  C19  1  0.03430000  0.94000000  0.18930000  1
  C  C20  1  0.63300000  0.80200000  0.02340000  1
  C  C21  1  0.49500000  0.85300000  0.97140000  1
  C  C22  1  0.33560000  0.42070000  0.98020000  1
  C  C23  1  0.52500000  0.36600000  0.97370000  1
  O  O24  1  0.40540000  0.94000000  0.67020000  1
  O  O25  1  0.66040000  0.53730000  0.48410000  1
  O  O26  1  0.87460000  0.57580000  0.56590000  1
  O  O27  1  0.60620000  0.57720000  0.69060000  1
  O  O28  1  0.72950000  0.84220000  0.66040000  1
  O  O29  1  0.42050000  0.87510000  0.50420000  1
  O  O30  1  0.72600000  0.86250000  0.49000000  1
  O  O31  1  0.37350000  0.65820000  0.61000000  1
  O  O32  1  0.34970000  0.13410000  0.77360000  1
  O  O33  1  0.86830000  0.32050000  0.40210000  1
  O  O34  1  0.09020000  0.35440000  0.49030000  1
  O  O35  1  0.49460000  0.43540000  0.77850000  1
  O  O36  1  0.69880000  0.03890000  0.75510000  1
  O  O37  1  0.37190000  0.05900000  0.40470000  1
  O  O38  1  0.70440000  0.04200000  0.38850000  1
  O  O39  1  0.21660000  0.54720000  0.69590000  1
  O  O40  1  0.62340000  0.26290000  0.92180000  1
  O  O41  1  0.27060000  0.35770000  0.93960000  1
  O  O42  1  0.50290000  0.92800000  0.90860000  1
  O  O43  1  0.60230000  0.34170000  0.29230000  1
  O  O44  1  0.27030000  0.35530000  0.30980000  1
  O  O45  1  0.10870000  0.06800000  0.29530000  1
  O  O46  1  0.88510000  0.03570000  0.20700000  1
  O  O47  1  0.42660000  0.34680000  0.48860000  1
  O  O48  1  0.55270000  0.52370000  0.19450000  1
  O  O49  1  0.31750000  0.85380000  0.21410000  1
  O  O50  1  0.24220000  0.53140000  0.20580000  1
  O  O51  1  0.09700000  0.81910000  0.13300000  1
  O  O52  1  0.60330000  0.72980000  0.08870000  1
  O  O53  1  0.36230000  0.81430000  0.00780000  1
  O  O54  1  0.24070000  0.55560000  0.04150000  1
  O  O55  1  0.56710000  0.44980000  0.03030000  1
  O  O56  1  0.77220000  0.83380000  0.99910000  1
