# generated using pymatgen
data_Li4Zr2H2C16O33
_symmetry_space_group_name_H-M   'P 1'
_cell_length_a   8.47520000
_cell_length_b   8.47970000
_cell_length_c   16.17250000
_cell_angle_alpha   78.17700000
_cell_angle_beta   89.23200000
_cell_angle_gamma   69.33400000
_symmetry_Int_Tables_number   1
_chemical_formula_structural   Li4Zr2H2C16O33
_chemical_formula_sum   'Li4 Zr2 H2 C16 O33'
_cell_volume   1062.20871398
_cell_formula_units_Z   1
loop_
 _symmetry_equiv_pos_site_id
 _symmetry_equiv_pos_as_xyz
  1  'x, y, z'
loop_
 _atom_site_type_symbol
 _atom_site_label
 _atom_site_symmetry_multiplicity
 _atom_site_fract_x
 _atom_site_fract_y
 _atom_site_fract_z
 _atom_site_occupancy
  Li  Li0  1  0.24200000  0.75700000  0.09120000  1
  Li  Li1  1  0.20400000  0.09900000  0.56530000  1
  Li  Li2  1  0.18700000  0.77400000  0.57230000  1
  Li  Li3  1  0.24000000  0.42000000  0.62600000  1
  Zr  Zr4  1  0.68592000  0.65558000  0.35981000  1
  Zr  Zr5  1  0.76287000  0.87021000  0.83557000  1
  H  H6  1  0.00490000  0.76420000  0.45150000  1
  H  H7  1  0.16370000  0.78770000  0.41460000  1
  C  C8  1  0.99030000  0.73390000  0.69880000  1
  C  C9  1  0.99940000  0.91680000  0.96240000  1
  C  C10  1  0.45850000  0.08970000  0.70910000  1
  C  C11  1  0.97760000  0.93010000  0.68850000  1
  C  C12  1  0.04980000  0.72300000  0.96820000  1
  C  C13  1  0.60880000  0.61100000  0.92500000  1
  C  C14  1  0.48040000  0.21540000  0.75920000  1
  C  C15  1  0.55270000  0.75600000  0.97470000  1
  C  C16  1  0.39390000  0.80850000  0.22460000  1
  C  C17  1  0.45200000  0.60700000  0.23500000  1
  C  C18  1  0.98970000  0.44160000  0.48490000  1
  C  C19  1  0.96840000  0.30850000  0.43550000  1
  C  C20  1  0.84300000  0.91600000  0.26970000  1
  C  C21  1  0.88600000  0.77000000  0.21880000  1
  C  C22  1  0.46490000  0.60510000  0.50790000  1
  C  C23  1  0.46130000  0.78720000  0.49890000  1
  O  O24  1  0.34870000  0.14420000  0.65280000  1
  O  O25  1  0.10530000  0.38030000  0.54320000  1
  O  O26  1  0.28550000  0.90190000  0.17310000  1
  O  O27  1  0.16240000  0.62090000  0.02440000  1
  O  O28  1  0.06440000  0.98030000  0.63440000  1
  O  O29  1  0.08620000  0.82040000  0.45990000  1
  O  O30  1  0.48000000  0.84860000  0.27950000  1
  O  O31  1  0.60240000  0.88540000  0.94010000  1
  O  O32  1  0.55850000  0.93380000  0.73410000  1
  O  O33  1  0.88740000  0.59260000  0.46010000  1
  O  O34  1  0.96650000  0.67920000  0.91920000  1
  O  O35  1  0.84880000  0.37590000  0.37780000  1
  O  O36  1  0.88960000  0.00490000  0.73880000  1
  O  O37  1  0.38890000  0.36890000  0.74080000  1
  O  O38  1  0.06890000  0.15960000  0.45320000  1
  O  O39  1  0.57580000  0.52220000  0.28820000  1
  O  O40  1  0.89590000  0.69750000  0.75180000  1
  O  O41  1  0.07640000  0.64680000  0.65360000  1
  O  O42  1  0.36950000  0.54900000  0.19260000  1
  O  O43  1  0.60020000  0.14990000  0.81700000  1
  O  O44  1  0.87230000  0.00580000  0.90570000  1
  O  O45  1  0.07060000  0.97230000  0.00330000  1
  O  O46  1  0.49580000  0.73850000  0.04350000  1
  O  O47  1  0.57950000  0.47700000  0.95010000  1
  O  O48  1  0.68550000  0.64630000  0.85550000  1
  O  O49  1  0.36640000  0.88320000  0.54280000  1
  O  O50  1  0.38890000  0.54380000  0.56220000  1
  O  O51  1  0.56640000  0.52160000  0.45610000  1
  O  O52  1  0.55280000  0.83490000  0.44170000  1
  O  O53  1  0.77110000  0.87840000  0.33440000  1
  O  O54  1  0.83790000  0.64750000  0.25220000  1
  O  O55  1  0.87300000  0.04480000  0.24670000  1
  O  O56  1  0.98480000  0.76510000  0.16320000  1
