# generated using pymatgen
data_Zr3H12C24S4(N3O4)4
_symmetry_space_group_name_H-M   'P 1'
_cell_length_a   14.36850000
_cell_length_b   19.81004097
_cell_length_c   19.81004097
_cell_angle_alpha   82.44255817
_cell_angle_beta   68.73653866
_cell_angle_gamma   68.73653866
_symmetry_Int_Tables_number   1
_chemical_formula_structural   Zr3H12C24S4(N3O4)4
_chemical_formula_sum   'Zr12 H48 C96 S16 N48 O64'
_cell_volume   4897.13359936
_cell_formula_units_Z   4
loop_
 _symmetry_equiv_pos_site_id
 _symmetry_equiv_pos_as_xyz
  1  'x, y, z'
loop_
 _atom_site_type_symbol
 _atom_site_label
 _atom_site_symmetry_multiplicity
 _atom_site_fract_x
 _atom_site_fract_y
 _atom_site_fract_z
 _atom_site_occupancy
  C  C0  1  0.38024000  0.67452000  0.06330000  1
  C  C1  1  0.47038000  0.58987000  0.93901000  1
  C  C2  1  0.26201000  0.84952000  0.07346000  1
  C  C3  1  0.31586000  0.81631000  0.12565000  1
  C  C4  1  0.51046000  0.61433000  0.80235000  1
  C  C5  1  0.58191000  0.58489000  0.72609000  1
  C  C6  1  0.86954000  0.35805000  0.71809000  1
  C  C7  1  0.97746000  0.30333000  0.78265000  1
  C  C8  1  0.90961000  0.42508000  0.77962000  1
  C  C9  1  0.43688000  0.97225000  0.92859000  1
  C  C10  1  0.58908000  0.99515000  0.87043000  1
  C  C11  1  0.48778000  0.99097000  0.80807000  1
  C  C12  1  0.11806000  0.32548000  0.93670000  1
  C  C13  1  0.99926000  0.41013000  0.06099000  1
  C  C14  1  0.18499000  0.15048000  0.92654000  1
  C  C15  1  0.25782000  0.18369000  0.87435000  1
  C  C16  1  0.92714000  0.38567000  0.19765000  1
  C  C17  1  0.89289000  0.41511000  0.27391000  1
  C  C18  1  0.94568000  0.64195000  0.28191000  1
  C  C19  1  0.06344000  0.69667000  0.21735000  1
  C  C20  1  0.11431000  0.57492000  0.22038000  1
  C  C21  1  0.33772000  0.02775000  0.07141000  1
  C  C22  1  0.45466000  0.00485000  0.12957000  1
  C  C23  1  0.28682000  0.00903000  0.19193000  1
  C  C24  1  0.94524000  0.93670000  0.67452000  1
  C  C25  1  0.93975000  0.06099000  0.58987000  1
  C  C26  1  0.88847000  0.92654000  0.84952000  1
  C  C27  1  0.86783000  0.87435000  0.81631000  1
  C  C28  1  0.87521000  0.19765000  0.61433000  1
  C  C29  1  0.83320000  0.27391000  0.58489000  1
  C  C30  1  0.77241000  0.28191000  0.35805000  1
  C  C31  1  0.71921000  0.21735000  0.30333000  1
  C  C32  1  0.66531000  0.22038000  0.42508000  1
  C  C33  1  0.59087000  0.07141000  0.97225000  1
  C  C34  1  0.41577000  0.12957000  0.99515000  1
  C  C35  1  0.52125000  0.19193000  0.99097000  1
  C  C36  1  0.55646000  0.06330000  0.32548000  1
  C  C37  1  0.59061000  0.93901000  0.41013000  1
  C  C38  1  0.66453000  0.07346000  0.15048000  1
  C  C39  1  0.55849000  0.12565000  0.18369000  1
  C  C40  1  0.68719000  0.80235000  0.38567000  1
  C  C41  1  0.69200000  0.72609000  0.41511000  1
  C  C42  1  0.41237000  0.71809000  0.64195000  1
  C  C43  1  0.23989000  0.78265000  0.69667000  1
  C  C44  1  0.31077000  0.77962000  0.57492000  1
  C  C45  1  0.63453000  0.92859000  0.02775000  1
  C  C46  1  0.54049000  0.87043000  0.00485000  1
  C  C47  1  0.70415000  0.80807000  0.00903000  1
  C  C48  1  0.36976000  0.43670000  0.82548000  1
  C  C49  1  0.27962000  0.56099000  0.91013000  1
  C  C50  1  0.48799000  0.42654000  0.65048000  1
  C  C51  1  0.43414000  0.37435000  0.68369000  1
  C  C52  1  0.23954000  0.69765000  0.88567000  1
  C  C53  1  0.16809000  0.77391000  0.91511000  1
  C  C54  1  0.88046000  0.78191000  0.14195000  1
  C  C55  1  0.77254000  0.71735000  0.19667000  1
  C  C56  1  0.84039000  0.72038000  0.07492000  1
  C  C57  1  0.31312000  0.57141000  0.52775000  1
  C  C58  1  0.16092000  0.62957000  0.50485000  1
  C  C59  1  0.26222000  0.69193000  0.50903000  1
  C  C60  1  0.63194000  0.56330000  0.17452000  1
  C  C61  1  0.75074000  0.43901000  0.08987000  1
  C  C62  1  0.56501000  0.57346000  0.34952000  1
  C  C63  1  0.49218000  0.62565000  0.31631000  1
  C  C64  1  0.82286000  0.30235000  0.11433000  1
  C  C65  1  0.85711000  0.22609000  0.08489000  1
  C  C66  1  0.80432000  0.21809000  0.85805000  1
  C  C67  1  0.68656000  0.28265000  0.80333000  1
  C  C68  1  0.63569000  0.27962000  0.92508000  1
  C  C69  1  0.41228000  0.42859000  0.47225000  1
  C  C70  1  0.29534000  0.37043000  0.49515000  1
  C  C71  1  0.46318000  0.30807000  0.49097000  1
  C  C72  1  0.80476000  0.82548000  0.56330000  1
  C  C73  1  0.81025000  0.91013000  0.43901000  1
  C  C74  1  0.86153000  0.65048000  0.57346000  1
  C  C75  1  0.88217000  0.68369000  0.62565000  1
  C  C76  1  0.87479000  0.88567000  0.30235000  1
  C  C77  1  0.91680000  0.91511000  0.22609000  1
  C  C78  1  0.97759000  0.14195000  0.21809000  1
  C  C79  1  0.03079000  0.19667000  0.28265000  1
  C  C80  1  0.08469000  0.07492000  0.27962000  1
  C  C81  1  0.15913000  0.52775000  0.42859000  1
  C  C82  1  0.33423000  0.50485000  0.37043000  1
  C  C83  1  0.22875000  0.50903000  0.30807000  1
  C  C84  1  0.19354000  0.17452000  0.43670000  1
  C  C85  1  0.15939000  0.08987000  0.56099000  1
  C  C86  1  0.08547000  0.34952000  0.42654000  1
  C  C87  1  0.19151000  0.31631000  0.37435000  1
  C  C88  1  0.06281000  0.11433000  0.69765000  1
  C  C89  1  0.05800000  0.08489000  0.77391000  1
  C  C90  1  0.33763000  0.85805000  0.78191000  1
  C  C91  1  0.51011000  0.80333000  0.71735000  1
  C  C92  1  0.43923000  0.92508000  0.72038000  1
  C  C93  1  0.11547000  0.47225000  0.57141000  1
  C  C94  1  0.20951000  0.49515000  0.62957000  1
  C  C95  1  0.04585000  0.49097000  0.69193000  1
  H  H96  1  0.87652000  0.31061000  0.70339000  1
  H  H97  1  0.44954000  0.96860000  0.97454000  1
  H  H98  1  0.55151000  0.17934000  0.15342000  1
  H  H99  1  0.49704000  0.10401000  0.17993000  1
  H  H100  1  0.73950000  0.31718000  0.15634000  1
  H  H101  1  0.88086000  0.30597000  0.13941000  1
  H  H102  1  0.89052000  0.68939000  0.29661000  1
  H  H103  1  0.39268000  0.03140000  0.02546000  1
  H  H104  1  0.88427000  0.82066000  0.84658000  1
  H  H105  1  0.78098000  0.89599000  0.82007000  1
  H  H106  1  0.21302000  0.68282000  0.84366000  1
  H  H107  1  0.32624000  0.69403000  0.86059000  1
  H  H108  1  0.81287000  0.29661000  0.31061000  1
  H  H109  1  0.58186000  0.02546000  0.96860000  1
  H  H110  1  0.26915000  0.84658000  0.17934000  1
  H  H111  1  0.39895000  0.82007000  0.10401000  1
  H  H112  1  0.94332000  0.84366000  0.31718000  1
  H  H113  1  0.81317000  0.86059000  0.30597000  1
  H  H114  1  0.42009000  0.70339000  0.68939000  1
  H  H115  1  0.57592000  0.97454000  0.03140000  1
  H  H116  1  0.29507000  0.15342000  0.82066000  1
  H  H117  1  0.32303000  0.17993000  0.89599000  1
  H  H118  1  0.10416000  0.15634000  0.68282000  1
  H  H119  1  0.97973000  0.13941000  0.69403000  1
  H  H120  1  0.87348000  0.79661000  0.18939000  1
  H  H121  1  0.30046000  0.52546000  0.53140000  1
  H  H122  1  0.19849000  0.34658000  0.32066000  1
  H  H123  1  0.25296000  0.32007000  0.39599000  1
  H  H124  1  0.01050000  0.34366000  0.18282000  1
  H  H125  1  0.86914000  0.36059000  0.19403000  1
  H  H126  1  0.85948000  0.20339000  0.81061000  1
  H  H127  1  0.35732000  0.47454000  0.46860000  1
  H  H128  1  0.86573000  0.65342000  0.67934000  1
  H  H129  1  0.96902000  0.67993000  0.60401000  1
  H  H130  1  0.53698000  0.65634000  0.81718000  1
  H  H131  1  0.42376000  0.63941000  0.80597000  1
  H  H132  1  0.93713000  0.18939000  0.20339000  1
  H  H133  1  0.16814000  0.53140000  0.47454000  1
  H  H134  1  0.48085000  0.32066000  0.65342000  1
  H  H135  1  0.35105000  0.39599000  0.67993000  1
  H  H136  1  0.80668000  0.18282000  0.65634000  1
  H  H137  1  0.93683000  0.19403000  0.63941000  1
  H  H138  1  0.32991000  0.81061000  0.79661000  1
  H  H139  1  0.17408000  0.46860000  0.52546000  1
  H  H140  1  0.45493000  0.67934000  0.34658000  1
  H  H141  1  0.42697000  0.60401000  0.32007000  1
  H  H142  1  0.64584000  0.81718000  0.34366000  1
  H  H143  1  0.77027000  0.80597000  0.36059000  1
  N  N144  1  0.38657000  0.70735000  0.99595000  1
  N  N145  1  0.43163000  0.66502000  0.93382000  1
  N  N146  1  0.46405000  0.55703000  0.00635000  1
  N  N147  1  0.41898000  0.59937000  0.06849000  1
  N  N148  1  0.91887000  0.36215000  0.76013000  1
  N  N149  1  0.50457000  0.98613000  0.86903000  1
  N  N150  1  0.08987000  0.29265000  0.00405000  1
  N  N151  1  0.03047000  0.33498000  0.06618000  1
  N  N152  1  0.02743000  0.44297000  0.99365000  1
  N  N153  1  0.08684000  0.40063000  0.93151000  1
  N  N154  1  0.04115000  0.63785000  0.23987000  1
  N  N155  1  0.35973000  0.01387000  0.13097000  1
  N  N156  1  0.90608000  0.00405000  0.70735000  1
  N  N157  1  0.90335000  0.06618000  0.66502000  1
  N  N158  1  0.97892000  0.99365000  0.55703000  1
  N  N159  1  0.98165000  0.93151000  0.59937000  1
  N  N160  1  0.71898000  0.23987000  0.36215000  1
  N  N161  1  0.50930000  0.13097000  0.98613000  1
  N  N162  1  0.61748000  0.99595000  0.29265000  1
  N  N163  1  0.63455000  0.93382000  0.33498000  1
  N  N164  1  0.52960000  0.00635000  0.44297000  1
  N  N165  1  0.51253000  0.06849000  0.40063000  1
  N  N166  1  0.32100000  0.76013000  0.63785000  1
  N  N167  1  0.62640000  0.86903000  0.01387000  1
  N  N168  1  0.36343000  0.50405000  0.79265000  1
  N  N169  1  0.31837000  0.56618000  0.83498000  1
  N  N170  1  0.28595000  0.49365000  0.94297000  1
  N  N171  1  0.33102000  0.43151000  0.90063000  1
  N  N172  1  0.83113000  0.73987000  0.13785000  1
  N  N173  1  0.24543000  0.63097000  0.51387000  1
  N  N174  1  0.66013000  0.49595000  0.20735000  1
  N  N175  1  0.71953000  0.43382000  0.16502000  1
  N  N176  1  0.72257000  0.50635000  0.05703000  1
  N  N177  1  0.66316000  0.56849000  0.09937000  1
  N  N178  1  0.70885000  0.26013000  0.86215000  1
  N  N179  1  0.39027000  0.36903000  0.48613000  1
  N  N180  1  0.84392000  0.79265000  0.49595000  1
  N  N181  1  0.84665000  0.83498000  0.43382000  1
  N  N182  1  0.77108000  0.94297000  0.50635000  1
  N  N183  1  0.76835000  0.90063000  0.56849000  1
  N  N184  1  0.03102000  0.13785000  0.26013000  1
  N  N185  1  0.24070000  0.51387000  0.36903000  1
  N  N186  1  0.13252000  0.20735000  0.50405000  1
  N  N187  1  0.11545000  0.16502000  0.56618000  1
  N  N188  1  0.22040000  0.05703000  0.49365000  1
  N  N189  1  0.23747000  0.09937000  0.43151000  1
  N  N190  1  0.42900000  0.86215000  0.73987000  1
  N  N191  1  0.12360000  0.48613000  0.63097000  1
  O  O192  1  0.26891000  0.90403000  0.04697000  1
  O  O193  1  0.64035000  0.51753000  0.71377000  1
  O  O194  1  0.60455000  0.63023000  0.67747000  1
  O  O195  1  0.17489000  0.83942000  0.08642000  1
  O  O196  1  0.81095000  0.41687000  0.69557000  1
  O  O197  1  0.05648000  0.97106000  0.08518000  1
  O  O198  1  0.02392000  0.07718000  0.02354000  1
  O  O199  1  0.35238000  0.96323000  0.92719000  1
  O  O200  1  0.21991000  0.09597000  0.95303000  1
  O  O201  1  0.87165000  0.48247000  0.28623000  1
  O  O202  1  0.91225000  0.36977000  0.32253000  1
  O  O203  1  0.10073000  0.16058000  0.91358000  1
  O  O204  1  0.92339000  0.58313000  0.30443000  1
  O  O205  1  0.11272000  0.02894000  0.91482000  1
  O  O206  1  0.12464000  0.92282000  0.97646000  1
  O  O207  1  0.24280000  0.03677000  0.07281000  1
  O  O208  1  0.82706000  0.95303000  0.90403000  1
  O  O209  1  0.84212000  0.28623000  0.51753000  1
  O  O210  1  0.76522000  0.32253000  0.63023000  1
  O  O211  1  0.98569000  0.91358000  0.83942000  1
  O  O212  1  0.77218000  0.30443000  0.41687000  1
  O  O213  1  0.97246000  0.91482000  0.97106000  1
  O  O214  1  0.89890000  0.97646000  0.07718000  1
  O  O215  1  0.68439000  0.07281000  0.96323000  1
  O  O216  1  0.68412000  0.04697000  0.09597000  1
  O  O217  1  0.64588000  0.71377000  0.48247000  1
  O  O218  1  0.71798000  0.67747000  0.36977000  1
  O  O219  1  0.73869000  0.08642000  0.16058000  1
  O  O220  1  0.49348000  0.69557000  0.58313000  1
  O  O221  1  0.85834000  0.08518000  0.02894000  1
  O  O222  1  0.95254000  0.02354000  0.92282000  1
  O  O223  1  0.72043000  0.92719000  0.03677000  1
  O  O224  1  0.48109000  0.45303000  0.59597000  1
  O  O225  1  0.10965000  0.78623000  0.98247000  1
  O  O226  1  0.14545000  0.82253000  0.86977000  1
  O  O227  1  0.57511000  0.41358000  0.66058000  1
  O  O228  1  0.93905000  0.80443000  0.08313000  1
  O  O229  1  0.69352000  0.41482000  0.52894000  1
  O  O230  1  0.72608000  0.47646000  0.42282000  1
  O  O231  1  0.39762000  0.57281000  0.53677000  1
  O  O232  1  0.53009000  0.54697000  0.40403000  1
  O  O233  1  0.87835000  0.21377000  0.01753000  1
  O  O234  1  0.83775000  0.17747000  0.13023000  1
  O  O235  1  0.64927000  0.58642000  0.33942000  1
  O  O236  1  0.82661000  0.19557000  0.91687000  1
  O  O237  1  0.63728000  0.58518000  0.47106000  1
  O  O238  1  0.62536000  0.52354000  0.57718000  1
  O  O239  1  0.50720000  0.42719000  0.46323000  1
  O  O240  1  0.92294000  0.59597000  0.54697000  1
  O  O241  1  0.90788000  0.98247000  0.21377000  1
  O  O242  1  0.98478000  0.86977000  0.17747000  1
  O  O243  1  0.76431000  0.66058000  0.58642000  1
  O  O244  1  0.97782000  0.08313000  0.19557000  1
  O  O245  1  0.77754000  0.52894000  0.58518000  1
  O  O246  1  0.85110000  0.42282000  0.52354000  1
  O  O247  1  0.06561000  0.53677000  0.42719000  1
  O  O248  1  0.06588000  0.40403000  0.45303000  1
  O  O249  1  0.10412000  0.01753000  0.78623000  1
  O  O250  1  0.03202000  0.13023000  0.82253000  1
  O  O251  1  0.01131000  0.33942000  0.41358000  1
  O  O252  1  0.25652000  0.91687000  0.80443000  1
  O  O253  1  0.89166000  0.47106000  0.41482000  1
  O  O254  1  0.79746000  0.57718000  0.47646000  1
  O  O255  1  0.02957000  0.46323000  0.57281000  1
  S  S256  1  0.32519000  0.72623000  0.13919000  1
  S  S257  1  0.52543000  0.53816000  0.86312000  1
  S  S258  1  0.19061000  0.27377000  0.86081000  1
  S  S259  1  0.92671000  0.46184000  0.13688000  1
  S  S260  1  0.94858000  0.86081000  0.72623000  1
  S  S261  1  0.93641000  0.13688000  0.53816000  1
  S  S262  1  0.53562000  0.13919000  0.27377000  1
  S  S263  1  0.61145000  0.86312000  0.46184000  1
  S  S264  1  0.42481000  0.36081000  0.77377000  1
  S  S265  1  0.22457000  0.63688000  0.96184000  1
  S  S266  1  0.55939000  0.63919000  0.22623000  1
  S  S267  1  0.82329000  0.36312000  0.03816000  1
  S  S268  1  0.80142000  0.77377000  0.63919000  1
  S  S269  1  0.81359000  0.96184000  0.36312000  1
  S  S270  1  0.21438000  0.22623000  0.36081000  1
  S  S271  1  0.13855000  0.03816000  0.63688000  1
  Zr  Zr272  1  0.71915000  0.43668000  0.62380000  1
  Zr  Zr273  1  0.77963000  0.56332000  0.37620000  1
  Zr  Zr274  1  0.84417000  0.37620000  0.43668000  1
  Zr  Zr275  1  0.65705000  0.62380000  0.56332000  1
  Zr  Zr276  1  0.03085000  0.87620000  0.06332000  1
  Zr  Zr277  1  0.97037000  0.12380000  0.93668000  1
  Zr  Zr278  1  0.90583000  0.06332000  0.12380000  1
  Zr  Zr279  1  0.09295000  0.93668000  0.87620000  1
  Zr  Zr280  1  0.17705000  0.00000000  0.00000000  1
  Zr  Zr281  1  0.82295000  0.00000000  0.00000000  1
  Zr  Zr282  1  0.57295000  0.50000000  0.50000000  1
  Zr  Zr283  1  0.92705000  0.50000000  0.50000000  1
