# generated using pymatgen
data_Zr3H22C18S4(N5O8)2
_symmetry_space_group_name_H-M   'P 1'
_cell_length_a   13.50100000
_cell_length_b   20.66976099
_cell_length_c   20.66976099
_cell_angle_alpha   83.87719387
_cell_angle_beta   70.93817670
_cell_angle_gamma   70.93817670
_symmetry_Int_Tables_number   1
_chemical_formula_structural   Zr3H22C18S4(N5O8)2
_chemical_formula_sum   'Zr12 H88 C72 S16 N40 O64'
_cell_volume   5152.92355100
_cell_formula_units_Z   4
loop_
 _symmetry_equiv_pos_site_id
 _symmetry_equiv_pos_as_xyz
  1  'x, y, z'
loop_
 _atom_site_type_symbol
 _atom_site_label
 _atom_site_symmetry_multiplicity
 _atom_site_fract_x
 _atom_site_fract_y
 _atom_site_fract_z
 _atom_site_occupancy
  C  C0  1  0.39251000  0.67994000  0.03320000  1
  C  C1  1  0.48430000  0.60557000  0.91077000  1
  C  C2  1  0.26180000  0.85700000  0.06060000  1
  C  C3  1  0.31435000  0.81624000  0.11126000  1
  C  C4  1  0.52595000  0.62005000  0.77705000  1
  C  C5  1  0.55769000  0.60220000  0.70062000  1
  C  C6  1  0.44960000  0.95068000  0.90982000  1
  C  C7  1  0.59911000  0.97983000  0.84571000  1
  C  C8  1  0.43374000  0.06082000  0.88040000  1
  C  C9  1  0.10565000  0.32006000  0.96680000  1
  C  C10  1  0.00064000  0.39443000  0.08923000  1
  C  C11  1  0.17940000  0.14300000  0.93940000  1
  C  C12  1  0.24185000  0.18376000  0.88874000  1
  C  C13  1  0.92305000  0.37995000  0.22295000  1
  C  C14  1  0.86051000  0.39780000  0.29938000  1
  C  C15  1  0.31010000  0.04932000  0.09018000  1
  C  C16  1  0.42465000  0.02017000  0.15429000  1
  C  C17  1  0.37496000  0.93918000  0.11960000  1
  C  C18  1  0.92755000  0.96680000  0.67994000  1
  C  C19  1  0.91013000  0.08923000  0.60557000  1
  C  C20  1  0.88120000  0.93940000  0.85700000  1
  C  C21  1  0.86941000  0.88874000  0.81624000  1
  C  C22  1  0.85400000  0.22295000  0.62005000  1
  C  C23  1  0.84011000  0.29938000  0.60220000  1
  C  C24  1  0.59972000  0.09018000  0.95068000  1
  C  C25  1  0.42106000  0.15429000  0.97983000  1
  C  C26  1  0.50544000  0.11960000  0.06082000  1
  C  C27  1  0.57429000  0.03320000  0.32006000  1
  C  C28  1  0.60493000  0.91077000  0.39443000  1
  C  C29  1  0.67760000  0.06060000  0.14300000  1
  C  C30  1  0.57439000  0.11126000  0.18376000  1
  C  C31  1  0.69700000  0.77705000  0.37995000  1
  C  C32  1  0.74169000  0.70062000  0.39780000  1
  C  C33  1  0.64058000  0.90982000  0.04932000  1
  C  C34  1  0.55518000  0.84571000  0.02017000  1
  C  C35  1  0.68586000  0.88040000  0.93918000  1
  C  C36  1  0.35749000  0.46680000  0.82006000  1
  C  C37  1  0.26570000  0.58923000  0.89443000  1
  C  C38  1  0.48820000  0.43940000  0.64300000  1
  C  C39  1  0.43565000  0.38874000  0.68376000  1
  C  C40  1  0.22405000  0.72295000  0.87995000  1
  C  C41  1  0.19231000  0.79938000  0.89780000  1
  C  C42  1  0.30040000  0.59018000  0.54932000  1
  C  C43  1  0.15089000  0.65429000  0.52017000  1
  C  C44  1  0.31626000  0.61960000  0.43918000  1
  C  C45  1  0.64435000  0.53320000  0.17994000  1
  C  C46  1  0.74936000  0.41077000  0.10557000  1
  C  C47  1  0.57060000  0.56060000  0.35700000  1
  C  C48  1  0.50815000  0.61126000  0.31624000  1
  C  C49  1  0.82695000  0.27705000  0.12005000  1
  C  C50  1  0.88949000  0.20062000  0.10220000  1
  C  C51  1  0.43990000  0.40982000  0.45068000  1
  C  C52  1  0.32535000  0.34571000  0.47983000  1
  C  C53  1  0.37504000  0.38040000  0.56082000  1
  C  C54  1  0.82245000  0.82006000  0.53320000  1
  C  C55  1  0.83987000  0.89443000  0.41077000  1
  C  C56  1  0.86880000  0.64300000  0.56060000  1
  C  C57  1  0.88059000  0.68376000  0.61126000  1
  C  C58  1  0.89600000  0.87995000  0.27705000  1
  C  C59  1  0.90989000  0.89780000  0.20062000  1
  C  C60  1  0.15028000  0.54932000  0.40982000  1
  C  C61  1  0.32894000  0.52017000  0.34571000  1
  C  C62  1  0.24456000  0.43918000  0.38040000  1
  C  C63  1  0.17571000  0.17994000  0.46680000  1
  C  C64  1  0.14507000  0.10557000  0.58923000  1
  C  C65  1  0.07240000  0.35700000  0.43940000  1
  C  C66  1  0.17561000  0.31624000  0.38874000  1
  C  C67  1  0.05300000  0.12005000  0.72295000  1
  C  C68  1  0.00831000  0.10220000  0.79938000  1
  C  C69  1  0.10942000  0.45068000  0.59018000  1
  C  C70  1  0.19482000  0.47983000  0.65429000  1
  C  C71  1  0.06414000  0.56082000  0.61960000  1
  H  H72  1  0.50257000  0.89481000  0.90827000  1
  H  H73  1  0.64788000  0.01600000  0.84448000  1
  H  H74  1  0.64237000  0.92851000  0.81805000  1
  H  H75  1  0.42262000  0.07645000  0.82801000  1
  H  H76  1  0.47594000  0.09445000  0.89435000  1
  H  H77  1  0.34969000  0.06743000  0.92037000  1
  H  H78  1  0.03558000  0.01912000  0.14812000  1
  H  H79  1  0.17561000  0.33692000  0.33536000  1
  H  H80  1  0.24682000  0.32528000  0.40056000  1
  H  H81  1  0.00990000  0.34521000  0.21925000  1
  H  H82  1  0.87806000  0.34806000  0.20916000  1
  H  H83  1  0.30565000  0.10519000  0.09173000  1
  H  H84  1  0.50836000  0.98400000  0.15552000  1
  H  H85  1  0.38893000  0.07149000  0.18195000  1
  H  H86  1  0.32708000  0.92355000  0.17199000  1
  H  H87  1  0.46474000  0.90555000  0.10565000  1
  H  H88  1  0.33749000  0.93257000  0.07963000  1
  H  H89  1  0.20282000  0.98088000  0.85188000  1
  H  H90  1  0.84789000  0.66308000  0.66464000  1
  H  H91  1  0.97266000  0.67472000  0.59944000  1
  H  H92  1  0.57436000  0.65479000  0.78075000  1
  H  H93  1  0.43528000  0.65194000  0.79084000  1
  H  H94  1  0.60262000  0.09173000  0.89481000  1
  H  H95  1  0.33612000  0.15552000  0.01600000  1
  H  H96  1  0.42912000  0.18195000  0.92851000  1
  H  H97  1  0.50093000  0.17199000  0.07645000  1
  H  H98  1  0.42961000  0.10565000  0.09445000  1
  H  H99  1  0.58288000  0.07963000  0.06743000  1
  H  H100  1  0.94530000  0.85188000  0.01912000  1
  H  H101  1  0.48747000  0.66464000  0.33692000  1
  H  H102  1  0.42790000  0.59944000  0.32528000  1
  H  H103  1  0.64489000  0.78075000  0.34521000  1
  H  H104  1  0.77388000  0.79084000  0.34806000  1
  H  H105  1  0.58916000  0.90827000  0.10519000  1
  H  H106  1  0.50764000  0.84448000  0.98400000  1
  H  H107  1  0.53958000  0.81805000  0.07149000  1
  H  H108  1  0.74937000  0.82801000  0.92355000  1
  H  H109  1  0.62971000  0.89435000  0.90555000  1
  H  H110  1  0.72994000  0.92037000  0.93257000  1
  H  H111  1  0.81630000  0.14812000  0.98088000  1
  H  H112  1  0.48903000  0.33536000  0.66308000  1
  H  H113  1  0.35262000  0.40056000  0.67472000  1
  H  H114  1  0.77085000  0.21925000  0.65479000  1
  H  H115  1  0.91278000  0.20916000  0.65194000  1
  H  H116  1  0.24743000  0.59173000  0.60519000  1
  H  H117  1  0.10212000  0.65552000  0.48400000  1
  H  H118  1  0.10763000  0.68195000  0.57149000  1
  H  H119  1  0.32738000  0.67199000  0.42355000  1
  H  H120  1  0.27406000  0.60565000  0.40555000  1
  H  H121  1  0.40031000  0.57963000  0.43257000  1
  H  H122  1  0.71442000  0.35188000  0.48088000  1
  H  H123  1  0.57439000  0.16464000  0.16308000  1
  H  H124  1  0.50318000  0.09944000  0.17472000  1
  H  H125  1  0.74010000  0.28075000  0.15479000  1
  H  H126  1  0.87194000  0.29084000  0.15194000  1
  H  H127  1  0.44435000  0.40827000  0.39481000  1
  H  H128  1  0.24164000  0.34448000  0.51600000  1
  H  H129  1  0.36107000  0.31805000  0.42851000  1
  H  H130  1  0.42292000  0.32801000  0.57645000  1
  H  H131  1  0.28526000  0.39435000  0.59445000  1
  H  H132  1  0.41251000  0.42037000  0.56743000  1
  H  H133  1  0.54718000  0.64812000  0.51912000  1
  H  H134  1  0.90211000  0.83536000  0.83692000  1
  H  H135  1  0.77734000  0.90056000  0.82528000  1
  H  H136  1  0.17564000  0.71925000  0.84521000  1
  H  H137  1  0.31472000  0.70916000  0.84806000  1
  H  H138  1  0.14738000  0.60519000  0.40827000  1
  H  H139  1  0.41388000  0.48400000  0.34448000  1
  H  H140  1  0.32088000  0.57149000  0.31805000  1
  H  H141  1  0.24907000  0.42355000  0.32801000  1
  H  H142  1  0.32039000  0.40555000  0.39435000  1
  H  H143  1  0.16712000  0.43257000  0.42037000  1
  H  H144  1  0.80470000  0.48088000  0.64812000  1
  H  H145  1  0.26253000  0.16308000  0.83536000  1
  H  H146  1  0.32210000  0.17472000  0.90056000  1
  H  H147  1  0.10511000  0.15479000  0.71925000  1
  H  H148  1  0.97612000  0.15194000  0.70916000  1
  H  H149  1  0.16084000  0.39481000  0.59173000  1
  H  H150  1  0.24236000  0.51600000  0.65552000  1
  H  H151  1  0.21042000  0.42851000  0.68195000  1
  H  H152  1  0.00063000  0.57645000  0.67199000  1
  H  H153  1  0.12029000  0.59445000  0.60565000  1
  H  H154  1  0.02006000  0.56743000  0.57963000  1
  H  H155  1  0.93370000  0.51912000  0.35188000  1
  H  H156  1  0.26097000  0.83692000  0.16464000  1
  H  H157  1  0.39738000  0.82528000  0.09944000  1
  H  H158  1  0.97915000  0.84521000  0.28075000  1
  H  H159  1  0.83722000  0.84806000  0.29084000  1
  N  N160  1  0.39266000  0.71402000  0.97090000  1
  N  N161  1  0.43855000  0.67683000  0.90969000  1
  N  N162  1  0.48416000  0.57148000  0.97306000  1
  N  N163  1  0.43826000  0.60866000  0.03428000  1
  N  N164  1  0.49415000  0.99711000  0.87865000  1
  N  N165  1  0.07758000  0.28598000  0.02910000  1
  N  N166  1  0.02507000  0.32317000  0.09031000  1
  N  N167  1  0.02870000  0.42852000  0.02694000  1
  N  N168  1  0.08120000  0.39134000  0.96572000  1
  N  N169  1  0.36991000  0.00289000  0.12135000  1
  N  N170  1  0.89332000  0.02910000  0.71402000  1
  N  N171  1  0.88462000  0.09031000  0.67683000  1
  N  N172  1  0.94436000  0.02694000  0.57148000  1
  N  N173  1  0.95308000  0.96572000  0.60866000  1
  N  N174  1  0.50874000  0.12135000  0.99711000  1
  N  N175  1  0.63644000  0.97090000  0.28598000  1
  N  N176  1  0.65176000  0.90969000  0.32317000  1
  N  N177  1  0.54278000  0.97306000  0.42852000  1
  N  N178  1  0.52746000  0.03428000  0.39134000  1
  N  N179  1  0.62720000  0.87865000  0.00289000  1
  N  N180  1  0.35734000  0.52910000  0.78598000  1
  N  N181  1  0.31145000  0.59031000  0.82317000  1
  N  N182  1  0.26584000  0.52694000  0.92852000  1
  N  N183  1  0.31174000  0.46572000  0.89134000  1
  N  N184  1  0.25585000  0.62135000  0.50289000  1
  N  N185  1  0.67242000  0.47090000  0.21402000  1
  N  N186  1  0.72493000  0.40969000  0.17683000  1
  N  N187  1  0.72130000  0.47306000  0.07148000  1
  N  N188  1  0.66880000  0.53428000  0.10866000  1
  N  N189  1  0.38009000  0.37865000  0.49711000  1
  N  N190  1  0.85668000  0.78598000  0.47090000  1
  N  N191  1  0.86538000  0.82317000  0.40969000  1
  N  N192  1  0.80564000  0.92852000  0.47306000  1
  N  N193  1  0.79692000  0.89134000  0.53428000  1
  N  N194  1  0.24126000  0.50289000  0.37865000  1
  N  N195  1  0.11356000  0.21402000  0.52910000  1
  N  N196  1  0.09824000  0.17683000  0.59031000  1
  N  N197  1  0.20722000  0.07148000  0.52694000  1
  N  N198  1  0.22254000  0.10866000  0.46572000  1
  N  N199  1  0.12280000  0.49711000  0.62135000  1
  O  O200  1  0.30300000  0.90326000  0.02254000  1
  O  O201  1  0.61875000  0.53996000  0.69214000  1
  O  O202  1  0.56132000  0.65136000  0.64820000  1
  O  O203  1  0.17610000  0.84470000  0.05830000  1
  O  O204  1  0.34465000  0.96796000  0.94276000  1
  O  O205  1  0.06320000  0.96190000  0.08130000  1
  O  O206  1  0.02440000  0.05930000  0.02290000  1
  O  O207  1  0.99540000  0.05930000  0.18830000  1
  O  O208  1  0.22880000  0.09674000  0.97746000  1
  O  O209  1  0.85085000  0.46004000  0.30786000  1
  O  O210  1  0.86088000  0.34864000  0.35180000  1
  O  O211  1  0.07910000  0.15530000  0.94170000  1
  O  O212  1  0.25537000  0.03204000  0.05724000  1
  O  O213  1  0.10640000  0.03810000  0.91870000  1
  O  O214  1  0.10660000  0.94070000  0.97710000  1
  O  O215  1  0.24300000  0.94070000  0.81170000  1
  O  O216  1  0.79374000  0.97746000  0.90326000  1
  O  O217  1  0.84129000  0.30786000  0.53996000  1
  O  O218  1  0.78732000  0.35180000  0.65136000  1
  O  O219  1  0.97920000  0.94170000  0.84470000  1
  O  O220  1  0.68739000  0.05724000  0.96796000  1
  O  O221  1  0.97490000  0.91870000  0.96190000  1
  O  O222  1  0.91630000  0.97710000  0.05930000  1
  O  O223  1  0.94530000  0.81170000  0.05930000  1
  O  O224  1  0.67446000  0.02254000  0.09674000  1
  O  O225  1  0.68911000  0.69214000  0.46004000  1
  O  O226  1  0.79048000  0.64820000  0.34864000  1
  O  O227  1  0.76560000  0.05830000  0.15530000  1
  O  O228  1  0.71259000  0.94276000  0.03204000  1
  O  O229  1  0.85550000  0.08130000  0.03810000  1
  O  O230  1  0.95270000  0.02290000  0.94070000  1
  O  O231  1  0.81630000  0.18830000  0.94070000  1
  O  O232  1  0.44700000  0.47746000  0.59674000  1
  O  O233  1  0.13125000  0.80786000  0.96004000  1
  O  O234  1  0.18868000  0.85180000  0.84864000  1
  O  O235  1  0.57390000  0.44170000  0.65530000  1
  O  O236  1  0.40535000  0.55724000  0.53204000  1
  O  O237  1  0.68680000  0.41870000  0.53810000  1
  O  O238  1  0.72560000  0.47710000  0.44070000  1
  O  O239  1  0.75460000  0.31170000  0.44070000  1
  O  O240  1  0.52120000  0.52254000  0.40326000  1
  O  O241  1  0.89915000  0.19214000  0.03996000  1
  O  O242  1  0.88912000  0.14820000  0.15136000  1
  O  O243  1  0.67090000  0.55830000  0.34470000  1
  O  O244  1  0.49463000  0.44276000  0.46796000  1
  O  O245  1  0.64360000  0.58130000  0.46190000  1
  O  O246  1  0.64340000  0.52290000  0.55930000  1
  O  O247  1  0.50700000  0.68830000  0.55930000  1
  O  O248  1  0.95626000  0.59674000  0.52254000  1
  O  O249  1  0.90871000  0.96004000  0.19214000  1
  O  O250  1  0.96268000  0.84864000  0.14820000  1
  O  O251  1  0.77080000  0.65530000  0.55830000  1
  O  O252  1  0.06261000  0.53204000  0.44276000  1
  O  O253  1  0.77510000  0.53810000  0.58130000  1
  O  O254  1  0.83370000  0.44070000  0.52290000  1
  O  O255  1  0.80470000  0.44070000  0.68830000  1
  O  O256  1  0.07554000  0.40326000  0.47746000  1
  O  O257  1  0.06089000  0.03996000  0.80786000  1
  O  O258  1  0.95952000  0.15136000  0.85180000  1
  O  O259  1  0.98440000  0.34470000  0.44170000  1
  O  O260  1  0.03741000  0.46796000  0.55724000  1
  O  O261  1  0.89450000  0.46190000  0.41870000  1
  O  O262  1  0.79730000  0.55930000  0.47710000  1
  O  O263  1  0.93370000  0.55930000  0.31170000  1
  S  S264  1  0.33445000  0.72699000  0.11063000  1
  S  S265  1  0.54236000  0.55851000  0.83333000  1
  S  S266  1  0.17207000  0.27301000  0.88937000  1
  S  S267  1  0.93420000  0.44149000  0.16667000  1
  S  S268  1  0.93856000  0.88937000  0.72699000  1
  S  S269  1  0.89913000  0.16667000  0.55851000  1
  S  S270  1  0.55492000  0.11063000  0.27301000  1
  S  S271  1  0.62431000  0.83333000  0.44149000  1
  S  S272  1  0.41555000  0.38937000  0.77301000  1
  S  S273  1  0.20764000  0.66667000  0.94149000  1
  S  S274  1  0.57793000  0.61063000  0.22699000  1
  S  S275  1  0.81580000  0.33333000  0.05851000  1
  S  S276  1  0.81144000  0.77301000  0.61063000  1
  S  S277  1  0.85087000  0.94149000  0.33333000  1
  S  S278  1  0.19508000  0.22699000  0.38937000  1
  S  S279  1  0.12569000  0.05851000  0.66667000  1
  Zr  Zr280  1  0.92658000  0.04616000  0.11904000  1
  Zr  Zr281  1  0.09178000  0.95384000  0.88096000  1
  Zr  Zr282  1  0.02726000  0.88096000  0.04616000  1
  Zr  Zr283  1  0.95438000  0.11904000  0.95384000  1
  Zr  Zr284  1  0.82342000  0.38096000  0.45384000  1
  Zr  Zr285  1  0.65822000  0.61904000  0.54616000  1
  Zr  Zr286  1  0.72274000  0.45384000  0.61904000  1
  Zr  Zr287  1  0.79562000  0.54616000  0.38096000  1
  Zr  Zr288  1  0.18601000  0.00000000  0.00000000  1
  Zr  Zr289  1  0.81399000  0.00000000  0.00000000  1
  Zr  Zr290  1  0.56399000  0.50000000  0.50000000  1
  Zr  Zr291  1  0.93601000  0.50000000  0.50000000  1
