# generated using pymatgen
data_Zr6H60C87O32
_symmetry_space_group_name_H-M   'P 1'
_cell_length_a   10.62400000
_cell_length_b   19.30900000
_cell_length_c   19.48300000
_cell_angle_alpha   63.46000000
_cell_angle_beta   77.79000000
_cell_angle_gamma   83.38000000
_symmetry_Int_Tables_number   1
_chemical_formula_structural   Zr6H60C87O32
_chemical_formula_sum   'Zr6 H60 C87 O32'
_cell_volume   3493.68583188
_cell_formula_units_Z   1
loop_
 _symmetry_equiv_pos_site_id
 _symmetry_equiv_pos_as_xyz
  1  'x, y, z'
loop_
 _atom_site_type_symbol
 _atom_site_label
 _atom_site_symmetry_multiplicity
 _atom_site_fract_x
 _atom_site_fract_y
 _atom_site_fract_z
 _atom_site_occupancy
  Zr  Zr0  1  0.44265000  0.93356000  0.14295000  1
  Zr  Zr1  1  0.72425000  0.94554000  0.00650000  1
  Zr  Zr2  1  0.55735000  0.06644000  0.85705000  1
  Zr  Zr3  1  0.27575000  0.05446000  0.99350000  1
  Zr  Zr4  1  0.56479000  0.11588000  0.00880000  1
  Zr  Zr5  1  0.43521000  0.88412000  0.99120000  1
  H  H6  1  0.76161000  0.53967000  0.51141000  1
  H  H7  1  0.02337000  0.50989000  0.66581000  1
  H  H8  1  0.04995000  0.71158000  0.44440000  1
  H  H9  1  0.56493000  0.74098000  0.33123000  1
  H  H10  1  0.95531000  0.80496000  0.20514000  1
  H  H11  1  0.04096000  0.71899000  0.32493000  1
  H  H12  1  0.76075000  0.41786000  0.56817000  1
  H  H13  1  0.66425000  0.29229000  0.66762000  1
  H  H14  1  0.75290000  0.33540000  0.85128000  1
  H  H15  1  0.85912000  0.45827000  0.75253000  1
  H  H16  1  0.20189000  0.69209000  0.53029000  1
  H  H17  1  0.18581000  0.60738000  0.62784000  1
  H  H18  1  0.06701000  0.68963000  0.60979000  1
  H  H19  1  0.23839000  0.46033000  0.48859000  1
  H  H20  1  0.97663000  0.49011000  0.33419000  1
  H  H21  1  0.95005000  0.28842000  0.55560000  1
  H  H22  1  0.43507000  0.25902000  0.66877000  1
  H  H23  1  0.04469000  0.19504000  0.79486000  1
  H  H24  1  0.95904000  0.28101000  0.67507000  1
  H  H25  1  0.23925000  0.58214000  0.43183000  1
  H  H26  1  0.33575000  0.70771000  0.33238000  1
  H  H27  1  0.24710000  0.66460000  0.14872000  1
  H  H28  1  0.14088000  0.54173000  0.24747000  1
  H  H29  1  0.78811000  0.31211000  0.47126000  1
  H  H30  1  0.81499000  0.39159000  0.37043000  1
  H  H31  1  0.74279000  0.41377000  0.45436000  1
  H  H32  1  0.24550000  0.08429000  0.51012000  1
  H  H33  1  0.42465000  0.13172000  0.66521000  1
  H  H34  1  0.64067000  0.16516000  0.43829000  1
  H  H35  1  0.32319000  0.01253000  0.45294000  1
  H  H36  1  0.34596000  0.98603000  0.33749000  1
  H  H37  1  0.60639000  0.17817000  0.20173000  1
  H  H38  1  0.58652000  0.20549000  0.31831000  1
  H  H39  1  0.07769000  0.14378000  0.56438000  1
  H  H40  1  0.87378000  0.10958000  0.66481000  1
  H  H41  1  0.10058000  0.98644000  0.84859000  1
  H  H42  1  0.30375000  0.02294000  0.74999000  1
  H  H43  1  0.72760000  0.20722000  0.51374000  1
  H  H44  1  0.70427000  0.12472000  0.61281000  1
  H  H45  1  0.62092000  0.21953000  0.59680000  1
  H  H46  1  0.75450000  0.91571000  0.48988000  1
  H  H47  1  0.57535000  0.86828000  0.33479000  1
  H  H48  1  0.35933000  0.83484000  0.56171000  1
  H  H49  1  0.67681000  0.98747000  0.54706000  1
  H  H50  1  0.65404000  0.01397000  0.66251000  1
  H  H51  1  0.39361000  0.82183000  0.79827000  1
  H  H52  1  0.41348000  0.79451000  0.68169000  1
  H  H53  1  0.92231000  0.85622000  0.43562000  1
  H  H54  1  0.12622000  0.89042000  0.33519000  1
  H  H55  1  0.89942000  0.01356000  0.15141000  1
  H  H56  1  0.69553000  0.97664000  0.25089000  1
  H  H57  1  0.33574000  0.75708000  0.46391000  1
  H  H58  1  0.35907000  0.83958000  0.36484000  1
  H  H59  1  0.25240000  0.85189000  0.44790000  1
  H  H60  1  0.55653000  0.21667000  0.99934000  1
  H  H61  1  0.95289000  0.18323000  0.96205000  1
  H  H62  1  0.65733000  0.78027000  0.97734000  1
  H  H63  1  0.04711000  0.81677000  0.03795000  1
  H  H64  1  0.91513000  0.83637000  0.98804000  1
  H  H65  1  0.29873000  0.16057000  0.98864000  1
  C  C66  1  0.90050000  0.63020000  0.46910000  1
  C  C67  1  0.84470000  0.56260000  0.52340000  1
  C  C68  1  0.88310000  0.51890000  0.59380000  1
  C  C69  1  0.98630000  0.54510000  0.60880000  1
  C  C70  1  0.04540000  0.61300000  0.55620000  1
  C  C71  1  0.00100000  0.65480000  0.48730000  1
  C  C72  1  0.85110000  0.67890000  0.39760000  1
  C  C73  1  0.72060000  0.68540000  0.39650000  1
  C  C74  1  0.67310000  0.73590000  0.33060000  1
  C  C75  1  0.75500000  0.78160000  0.26220000  1
  C  C76  1  0.88510000  0.77210000  0.26130000  1
  C  C77  1  0.93220000  0.72300000  0.32790000  1
  C  C78  1  0.70080000  0.84020000  0.19480000  1
  C  C79  1  0.81930000  0.44680000  0.65320000  1
  C  C80  1  0.76290000  0.39980000  0.63220000  1
  C  C81  1  0.70790000  0.33030000  0.68710000  1
  C  C82  1  0.70520000  0.30640000  0.76510000  1
  C  C83  1  0.75650000  0.35260000  0.78680000  1
  C  C84  1  0.81420000  0.42120000  0.73250000  1
  C  C85  1  0.65130000  0.23060000  0.82330000  1
  C  C86  1  0.13070000  0.65320000  0.58280000  1
  C  C87  1  0.09950000  0.36980000  0.53090000  1
  C  C88  1  0.15530000  0.43740000  0.47660000  1
  C  C89  1  0.11690000  0.48110000  0.40620000  1
  C  C90  1  0.01370000  0.45490000  0.39120000  1
  C  C91  1  0.95460000  0.38700000  0.44380000  1
  C  C92  1  0.99900000  0.34520000  0.51270000  1
  C  C93  1  0.14890000  0.32110000  0.60240000  1
  C  C94  1  0.27940000  0.31460000  0.60350000  1
  C  C95  1  0.32690000  0.26410000  0.66940000  1
  C  C96  1  0.24500000  0.21840000  0.73780000  1
  C  C97  1  0.11490000  0.22790000  0.73870000  1
  C  C98  1  0.06780000  0.27700000  0.67210000  1
  C  C99  1  0.29920000  0.15980000  0.80520000  1
  C  C100  1  0.18070000  0.55320000  0.34680000  1
  C  C101  1  0.23710000  0.60020000  0.36780000  1
  C  C102  1  0.29210000  0.66970000  0.31290000  1
  C  C103  1  0.29480000  0.69360000  0.23490000  1
  C  C104  1  0.24350000  0.64740000  0.21320000  1
  C  C105  1  0.18580000  0.57880000  0.26750000  1
  C  C106  1  0.34870000  0.76940000  0.17670000  1
  C  C107  1  0.81540000  0.37530000  0.43430000  1
  C  C108  1  0.00000000  0.96620000  0.00640000  1
  C  C109  1  0.44510000  0.12160000  0.46590000  1
  C  C110  1  0.33370000  0.10330000  0.52140000  1
  C  C111  1  0.32430000  0.10710000  0.59130000  1
  C  C112  1  0.42990000  0.13030000  0.60680000  1
  C  C113  1  0.54090000  0.15160000  0.55210000  1
  C  C114  1  0.54740000  0.14710000  0.48270000  1
  C  C115  1  0.45420000  0.10910000  0.39530000  1
  C  C116  1  0.38960000  0.05060000  0.39720000  1
  C  C117  1  0.40150000  0.03530000  0.33333333  1
  C  C118  1  0.47950000  0.07860000  0.26430000  1
  C  C119  1  0.54370000  0.13990000  0.25910000  1
  C  C120  1  0.53220000  0.15520000  0.32370000  1
  C  C121  1  0.49610000  0.05890000  0.19700000  1
  C  C122  1  0.20350000  0.08590000  0.65050000  1
  C  C123  1  0.08450000  0.10860000  0.62860000  1
  C  C124  1  0.97100000  0.08920000  0.68400000  1
  C  C125  1  0.97570000  0.04570000  0.76150000  1
  C  C126  1  0.09490000  0.02240000  0.78430000  1
  C  C127  1  0.20720000  0.04240000  0.72970000  1
  C  C128  1  0.85420000  0.02690000  0.82060000  1
  C  C129  1  0.65570000  0.17740000  0.57000000  1
  C  C130  1  0.84860000  0.16700000  0.99070000  1
  C  C131  1  0.55490000  0.87840000  0.53410000  1
  C  C132  1  0.66630000  0.89670000  0.47860000  1
  C  C133  1  0.67570000  0.89290000  0.40870000  1
  C  C134  1  0.57010000  0.86970000  0.39320000  1
  C  C135  1  0.45910000  0.84840000  0.44790000  1
  C  C136  1  0.45260000  0.85290000  0.51730000  1
  C  C137  1  0.54580000  0.89090000  0.60470000  1
  C  C138  1  0.61040000  0.94940000  0.60280000  1
  C  C139  1  0.59850000  0.96470000  0.66666667  1
  C  C140  1  0.52050000  0.92140000  0.73570000  1
  C  C141  1  0.45630000  0.86010000  0.74090000  1
  C  C142  1  0.46780000  0.84480000  0.67630000  1
  C  C143  1  0.50390000  0.94110000  0.80300000  1
  C  C144  1  0.79650000  0.91410000  0.34950000  1
  C  C145  1  0.91550000  0.89140000  0.37140000  1
  C  C146  1  0.02900000  0.91080000  0.31600000  1
  C  C147  1  0.02430000  0.95430000  0.23850000  1
  C  C148  1  0.90510000  0.97760000  0.21570000  1
  C  C149  1  0.79280000  0.95760000  0.27030000  1
  C  C150  1  0.14580000  0.97310000  0.17940000  1
  C  C151  1  0.34430000  0.82260000  0.43000000  1
  C  C152  1  0.15140000  0.83300000  0.00930000  1
  O  O153  1  0.58560000  0.86338000  0.21125000  1
  O  O154  1  0.76810000  0.86470000  0.12797000  1
  O  O155  1  0.62960000  0.18487000  0.79874000  1
  O  O156  1  0.63420000  0.21700000  0.89403000  1
  O  O157  1  0.61930000  0.99900000  0.07730000  1
  O  O158  1  0.55180000  0.88290000  0.06830000  1
  O  O159  1  0.32680000  0.93670000  0.06142000  1
  O  O160  1  0.89760000  0.98510000  0.01750000  1
  O  O161  1  0.41440000  0.13662000  0.78875000  1
  O  O162  1  0.23190000  0.13530000  0.87203000  1
  O  O163  1  0.37040000  0.81513000  0.20126000  1
  O  O164  1  0.36580000  0.78300000  0.10597000  1
  O  O165  1  0.38070000  0.00100000  0.92270000  1
  O  O166  1  0.44820000  0.11710000  0.93170000  1
  O  O167  1  0.67320000  0.06330000  0.93858000  1
  O  O168  1  0.10240000  0.01490000  0.98250000  1
  O  O169  1  0.46400000  0.99218000  0.21326000  1
  O  O170  1  0.54170000  0.10882000  0.12979000  1
  O  O171  1  0.75190000  0.05736000  0.79614000  1
  O  O172  1  0.86230000  0.98200000  0.89057000  1
  O  O173  1  0.39340000  0.05270000  0.07060000  1
  O  O174  1  0.44960000  0.21820000  0.01100000  1
  O  O175  1  0.74450000  0.15080000  0.01930000  1
  O  O176  1  0.53600000  0.00782000  0.78674000  1
  O  O177  1  0.45830000  0.89118000  0.87021000  1
  O  O178  1  0.24810000  0.94264000  0.20386000  1
  O  O179  1  0.13770000  0.01800000  0.10943000  1
  O  O180  1  0.60660000  0.94730000  0.92940000  1
  O  O181  1  0.55040000  0.78180000  0.98900000  1
  O  O182  1  0.25550000  0.84920000  0.98070000  1
  O  O183  1  0.80820000  0.83790000  0.99970000  1
  O  O184  1  0.19180000  0.16210000  0.00030000  1
