# generated using pymatgen
data_ZrH8C14O5
_symmetry_space_group_name_H-M   'P 1'
_cell_length_a   7.81106000
_cell_length_b   15.51770000
_cell_length_c   17.69994576
_cell_angle_alpha   115.99893567
_cell_angle_beta   101.29904721
_cell_angle_gamma   90.00000000
_symmetry_Int_Tables_number   1
_chemical_formula_structural   ZrH8C14O5
_chemical_formula_sum   'Zr4 H32 C56 O20'
_cell_volume   1881.92106220
_cell_formula_units_Z   4
loop_
 _symmetry_equiv_pos_site_id
 _symmetry_equiv_pos_as_xyz
  1  'x, y, z'
loop_
 _atom_site_type_symbol
 _atom_site_label
 _atom_site_symmetry_multiplicity
 _atom_site_fract_x
 _atom_site_fract_y
 _atom_site_fract_z
 _atom_site_occupancy
  C  C0  1  0.99201000  0.45422000  0.45942000  1
  C  C1  1  0.12338000  0.43580000  0.41204000  1
  C  C2  1  0.10839000  0.35001000  0.33600000  1
  C  C3  1  0.96204000  0.28264000  0.30734000  1
  C  C4  1  0.83067000  0.30106000  0.35472000  1
  C  C5  1  0.84565000  0.38685000  0.43076000  1
  C  C6  1  0.94605000  0.19108000  0.22618000  1
  C  C7  1  0.25000000  0.46559000  1.00000000  1
  C  C8  1  0.25908000  0.38282000  0.92478000  1
  C  C9  1  0.25908000  0.29248000  0.92478000  1
  C  C10  1  0.25000000  0.28493000  1.00000000  1
  C  C11  1  0.25000000  0.56200000  1.00000000  1
  C  C12  1  0.31279000  0.57546000  0.93660000  1
  C  C13  1  0.31279000  0.66580000  0.93660000  1
  C  C14  1  0.25000000  0.74266000  1.00000000  1
  C  C15  1  0.25000000  0.18853000  1.00000000  1
  C  C16  1  0.25000000  0.83907000  1.00000000  1
  C  C17  1  0.00799000  0.54578000  0.54058000  1
  C  C18  1  0.87662000  0.56420000  0.58796000  1
  C  C19  1  0.89161000  0.64999000  0.66400000  1
  C  C20  1  0.03796000  0.71736000  0.69266000  1
  C  C21  1  0.16933000  0.69894000  0.64528000  1
  C  C22  1  0.15435000  0.61315000  0.56924000  1
  C  C23  1  0.05395000  0.80892000  0.77382000  1
  C  C24  1  0.24092000  0.45804000  0.07522000  1
  C  C25  1  0.24092000  0.36770000  0.07522000  1
  C  C26  1  0.18721000  0.63886000  0.06340000  1
  C  C27  1  0.18721000  0.72920000  0.06340000  1
  C  C28  1  0.50799000  0.99480000  0.54058000  1
  C  C29  1  0.37662000  0.02376000  0.58796000  1
  C  C30  1  0.39161000  0.01401000  0.66400000  1
  C  C31  1  0.53796000  0.97530000  0.69266000  1
  C  C32  1  0.66933000  0.94634000  0.64528000  1
  C  C33  1  0.65435000  0.95609000  0.56924000  1
  C  C34  1  0.55395000  0.96490000  0.77382000  1
  C  C35  1  0.49201000  0.00520000  0.45942000  1
  C  C36  1  0.62338000  0.97624000  0.41204000  1
  C  C37  1  0.60839000  0.98599000  0.33600000  1
  C  C38  1  0.46204000  0.02470000  0.30734000  1
  C  C39  1  0.33067000  0.05366000  0.35472000  1
  C  C40  1  0.34565000  0.04391000  0.43076000  1
  C  C41  1  0.44605000  0.03510000  0.22618000  1
  C  C42  1  0.75000000  0.53441000  1.00000000  1
  C  C43  1  0.74092000  0.61718000  0.07522000  1
  C  C44  1  0.74092000  0.70752000  0.07522000  1
  C  C45  1  0.75000000  0.71507000  1.00000000  1
  C  C46  1  0.75000000  0.43800000  1.00000000  1
  C  C47  1  0.68721000  0.42454000  0.06340000  1
  C  C48  1  0.68721000  0.33420000  0.06340000  1
  C  C49  1  0.75000000  0.25734000  1.00000000  1
  C  C50  1  0.75000000  0.81147000  1.00000000  1
  C  C51  1  0.75000000  0.16093000  1.00000000  1
  C  C52  1  0.75908000  0.54196000  0.92478000  1
  C  C53  1  0.75908000  0.63230000  0.92478000  1
  C  C54  1  0.81279000  0.36114000  0.93660000  1
  C  C55  1  0.81279000  0.27080000  0.93660000  1
  H  H56  1  0.19555000  0.33780000  0.30458000  1
  H  H57  1  0.22047000  0.48050000  0.43106000  1
  H  H58  1  0.73357000  0.25636000  0.33570000  1
  H  H59  1  0.75850000  0.39907000  0.46220000  1
  H  H60  1  0.26544000  0.23462000  0.87220000  1
  H  H61  1  0.26544000  0.38810000  0.87220000  1
  H  H62  1  0.35669000  0.67520000  0.89226000  1
  H  H63  1  0.35669000  0.52172000  0.89226000  1
  H  H64  1  0.80445000  0.66220000  0.69542000  1
  H  H65  1  0.77953000  0.51950000  0.56894000  1
  H  H66  1  0.26643000  0.74364000  0.66430000  1
  H  H67  1  0.24150000  0.60093000  0.53780000  1
  H  H68  1  0.23456000  0.36242000  0.12780000  1
  H  H69  1  0.23456000  0.51590000  0.12780000  1
  H  H70  1  0.14331000  0.78294000  0.10774000  1
  H  H71  1  0.14331000  0.62946000  0.10774000  1
  H  H72  1  0.30445000  0.03322000  0.69542000  1
  H  H73  1  0.27953000  0.04944000  0.56894000  1
  H  H74  1  0.76643000  0.92066000  0.66430000  1
  H  H75  1  0.74150000  0.93687000  0.53780000  1
  H  H76  1  0.69555000  0.96678000  0.30458000  1
  H  H77  1  0.72047000  0.95056000  0.43106000  1
  H  H78  1  0.23357000  0.07934000  0.33570000  1
  H  H79  1  0.25850000  0.06313000  0.46220000  1
  H  H80  1  0.73456000  0.76538000  0.12780000  1
  H  H81  1  0.73456000  0.61190000  0.12780000  1
  H  H82  1  0.64331000  0.32480000  0.10774000  1
  H  H83  1  0.64331000  0.47828000  0.10774000  1
  H  H84  1  0.76544000  0.63758000  0.87220000  1
  H  H85  1  0.76544000  0.48410000  0.87220000  1
  H  H86  1  0.85669000  0.21706000  0.89226000  1
  H  H87  1  0.85669000  0.37054000  0.89226000  1
  O  O88  1  0.59870000  0.93914000  0.94410000  1
  O  O89  1  0.06055000  0.17632000  0.18158000  1
  O  O90  1  0.81805000  0.12857000  0.20230000  1
  O  O91  1  0.30546000  0.11912000  0.94256000  1
  O  O92  1  0.30033000  0.85026000  0.94102000  1
  O  O93  1  0.93945000  0.82368000  0.81842000  1
  O  O94  1  0.18195000  0.87143000  0.79770000  1
  O  O95  1  0.19454000  0.17656000  0.05744000  1
  O  O96  1  0.19967000  0.90924000  0.05898000  1
  O  O97  1  0.40130000  0.06086000  0.05590000  1
  O  O98  1  0.90130000  0.99504000  0.05590000  1
  O  O99  1  0.09870000  0.00496000  0.94410000  1
  O  O100  1  0.43945000  0.99474000  0.81842000  1
  O  O101  1  0.56055000  0.00526000  0.18158000  1
  O  O102  1  0.69454000  0.88088000  0.05744000  1
  O  O103  1  0.69967000  0.14974000  0.05898000  1
  O  O104  1  0.68195000  0.92627000  0.79770000  1
  O  O105  1  0.31805000  0.07373000  0.20230000  1
  O  O106  1  0.80546000  0.82344000  0.94256000  1
  O  O107  1  0.80033000  0.09076000  0.94102000  1
  Zr  Zr108  1  0.34121000  0.97224800  0.91747600  1
  Zr  Zr109  1  0.65879000  0.02775200  0.08252400  1
  Zr  Zr110  1  0.15879000  0.05477200  0.08252400  1
  Zr  Zr111  1  0.84121000  0.94522800  0.91747600  1
