# generated using pymatgen
data_ZrH4C12N2O7
_symmetry_space_group_name_H-M   'P 1'
_cell_length_a   7.76020000
_cell_length_b   15.36400000
_cell_length_c   17.50959853
_cell_angle_alpha   116.02292857
_cell_angle_beta   100.34475335
_cell_angle_gamma   90.00000000
_symmetry_Int_Tables_number   1
_chemical_formula_structural   ZrH4C12N2O7
_chemical_formula_sum   'Zr4 H16 C48 N8 O28'
_cell_volume   1838.14513062
_cell_formula_units_Z   4
loop_
 _symmetry_equiv_pos_site_id
 _symmetry_equiv_pos_as_xyz
  1  'x, y, z'
loop_
 _atom_site_type_symbol
 _atom_site_label
 _atom_site_symmetry_multiplicity
 _atom_site_fract_x
 _atom_site_fract_y
 _atom_site_fract_z
 _atom_site_occupancy
  C  C0  1  0.96904000  0.47523000  0.43602000  1
  C  C1  1  0.08817000  0.36577000  0.31410000  1
  C  C2  1  0.93477000  0.30381000  0.28314000  1
  C  C3  1  0.79851000  0.32755000  0.32862000  1
  C  C4  1  0.81564000  0.41327000  0.40506000  1
  C  C5  1  0.98716000  0.56592000  0.51690000  1
  C  C6  1  0.14056000  0.62789000  0.54786000  1
  C  C7  1  0.15769000  0.71360000  0.62430000  1
  C  C8  1  0.02143000  0.73735000  0.66978000  1
  C  C9  1  0.86803000  0.67537000  0.63880000  1
  C  C10  1  0.91665000  0.21312000  0.20226000  1
  C  C11  1  0.03956000  0.82803000  0.75064000  1
  C  C12  1  0.27106000  0.47663000  0.01634000  1
  C  C13  1  0.32341000  0.30766000  0.94548000  1
  C  C14  1  0.28849000  0.29546000  0.01550000  1
  C  C15  1  0.24485000  0.37385000  0.08594000  1
  C  C16  1  0.23614000  0.46443000  0.08636000  1
  C  C17  1  0.26184000  0.57246000  0.01676000  1
  C  C18  1  0.29677000  0.58466000  0.94674000  1
  C  C19  1  0.28806000  0.67524000  0.94716000  1
  C  C20  1  0.24442000  0.75363000  0.01760000  1
  C  C21  1  0.20950000  0.74143000  0.08762000  1
  C  C22  1  0.29770000  0.19963000  0.01508000  1
  C  C23  1  0.23520000  0.84946000  0.01802000  1
  C  C24  1  0.46904000  0.96079000  0.43602000  1
  C  C25  1  0.58817000  0.94833000  0.31410000  1
  C  C26  1  0.43477000  0.97933000  0.28314000  1
  C  C27  1  0.29851000  0.00107000  0.32862000  1
  C  C28  1  0.31564000  0.99179000  0.40506000  1
  C  C29  1  0.48716000  0.95098000  0.51690000  1
  C  C30  1  0.64056000  0.91997000  0.54786000  1
  C  C31  1  0.65769000  0.91070000  0.62430000  1
  C  C32  1  0.52143000  0.93243000  0.66978000  1
  C  C33  1  0.36803000  0.96343000  0.63880000  1
  C  C34  1  0.41665000  0.98914000  0.20226000  1
  C  C35  1  0.53956000  0.92261000  0.75064000  1
  C  C36  1  0.77106000  0.53971000  0.01634000  1
  C  C37  1  0.82341000  0.63782000  0.94548000  1
  C  C38  1  0.78849000  0.72004000  0.01550000  1
  C  C39  1  0.74485000  0.71209000  0.08594000  1
  C  C40  1  0.73614000  0.62193000  0.08636000  1
  C  C41  1  0.76184000  0.44430000  0.01676000  1
  C  C42  1  0.79677000  0.36208000  0.94674000  1
  C  C43  1  0.78806000  0.27192000  0.94716000  1
  C  C44  1  0.74442000  0.26397000  0.01760000  1
  C  C45  1  0.70950000  0.34619000  0.08762000  1
  C  C46  1  0.79770000  0.81545000  0.01508000  1
  C  C47  1  0.73520000  0.16856000  0.01802000  1
  H  H48  1  0.17933000  0.34989000  0.28368000  1
  H  H49  1  0.69589000  0.28610000  0.30790000  1
  H  H50  1  0.26031000  0.75506000  0.64502000  1
  H  H51  1  0.77688000  0.69125000  0.66922000  1
  H  H52  1  0.35260000  0.25522000  0.89836000  1
  H  H53  1  0.22149000  0.36569000  0.13278000  1
  H  H54  1  0.31142000  0.68340000  0.90032000  1
  H  H55  1  0.18031000  0.79387000  0.13474000  1
  H  H56  1  0.67933000  0.93379000  0.28368000  1
  H  H57  1  0.19589000  0.02180000  0.30790000  1
  H  H58  1  0.76031000  0.88996000  0.64502000  1
  H  H59  1  0.27688000  0.97797000  0.66922000  1
  H  H60  1  0.85260000  0.64314000  0.89836000  1
  H  H61  1  0.72149000  0.76709000  0.13278000  1
  H  H62  1  0.81142000  0.21692000  0.90032000  1
  H  H63  1  0.68031000  0.34087000  0.13474000  1
  N  N64  1  0.10530000  0.45148000  0.39054000  1
  N  N65  1  0.85090000  0.58966000  0.56236000  1
  N  N66  1  0.31470000  0.39824000  0.94590000  1
  N  N67  1  0.21821000  0.65085000  0.08720000  1
  N  N68  1  0.60530000  0.93906000  0.39054000  1
  N  N69  1  0.35090000  0.97270000  0.56236000  1
  N  N70  1  0.81470000  0.54766000  0.94590000  1
  N  N71  1  0.71821000  0.43635000  0.08720000  1
  O  O72  1  0.40130000  0.05885000  0.04410000  1
  O  O73  1  0.07140000  0.00780000  0.93940000  1
  O  O74  1  0.01945000  0.20190000  0.14970000  1
  O  O75  1  0.79806000  0.14543000  0.18446000  1
  O  O76  1  0.17105000  0.89055000  0.77378000  1
  O  O77  1  0.92384000  0.84442000  0.79790000  1
  O  O78  1  0.68332000  0.43631000  0.44920000  1
  O  O79  1  0.27288000  0.60483000  0.50370000  1
  O  O80  1  0.32732000  0.12616000  0.94808000  1
  O  O81  1  0.27610000  0.18971000  0.08168000  1
  O  O82  1  0.31433000  0.86916000  0.96860000  1
  O  O83  1  0.14806000  0.91314000  0.06782000  1
  O  O84  1  0.19377000  0.54055000  0.15476000  1
  O  O85  1  0.33914000  0.50854000  0.87834000  1
  O  O86  1  0.90130000  0.98525000  0.04410000  1
  O  O87  1  0.57140000  0.93160000  0.93940000  1
  O  O88  1  0.51945000  0.94780000  0.14970000  1
  O  O89  1  0.29806000  0.03903000  0.18446000  1
  O  O90  1  0.67105000  0.88323000  0.77378000  1
  O  O91  1  0.42384000  0.95348000  0.79790000  1
  O  O92  1  0.18332000  0.01289000  0.44920000  1
  O  O93  1  0.77288000  0.89887000  0.50370000  1
  O  O94  1  0.82732000  0.82192000  0.94808000  1
  O  O95  1  0.77610000  0.89197000  0.08168000  1
  O  O96  1  0.81433000  0.09944000  0.96860000  1
  O  O97  1  0.64806000  0.15468000  0.06782000  1
  O  O98  1  0.69377000  0.61421000  0.15476000  1
  O  O99  1  0.83914000  0.36980000  0.87834000  1
  Zr  Zr100  1  0.14800000  0.06144000  0.07920000  1
  Zr  Zr101  1  0.32070000  0.96682000  0.90796000  1
  Zr  Zr102  1  0.64800000  0.01776000  0.07920000  1
  Zr  Zr103  1  0.82070000  0.94114000  0.90796000  1
