# generated using pymatgen
data_Zr3H16(C3O2)8
_symmetry_space_group_name_H-M   'P 1'
_cell_length_a   11.67700000
_cell_length_b   16.68546644
_cell_length_c   16.68546644
_cell_angle_alpha   64.48695002
_cell_angle_beta   69.51786541
_cell_angle_gamma   69.51786541
_symmetry_Int_Tables_number   1
_chemical_formula_structural   Zr3H16(C3O2)8
_chemical_formula_sum   'Zr6 H32 C48 O32'
_cell_volume   2671.06461318
_cell_formula_units_Z   2
loop_
 _symmetry_equiv_pos_site_id
 _symmetry_equiv_pos_as_xyz
  1  'x, y, z'
loop_
 _atom_site_type_symbol
 _atom_site_label
 _atom_site_symmetry_multiplicity
 _atom_site_fract_x
 _atom_site_fract_y
 _atom_site_fract_z
 _atom_site_occupancy
  C  C0  1  0.80327000  0.74793000  0.00253000  1
  C  C1  1  0.88685000  0.65505000  0.01185000  1
  C  C2  1  0.95367000  0.60913000  0.08093000  1
  C  C3  1  0.02663000  0.52147000  0.09127000  1
  C  C4  1  0.89211000  0.61189000  0.95629000  1
  C  C5  1  0.96510000  0.52280000  0.96600000  1
  C  C6  1  0.44627000  0.00253000  0.74793000  1
  C  C7  1  0.44625000  0.01185000  0.65505000  1
  C  C8  1  0.35627000  0.08093000  0.60913000  1
  C  C9  1  0.36063000  0.09127000  0.52147000  1
  C  C10  1  0.53971000  0.95629000  0.61189000  1
  C  C11  1  0.54610000  0.96600000  0.52280000  1
  C  C12  1  0.19673000  0.99747000  0.25207000  1
  C  C13  1  0.11315000  0.98815000  0.34495000  1
  C  C14  1  0.04633000  0.91907000  0.39087000  1
  C  C15  1  0.97337000  0.90873000  0.47853000  1
  C  C16  1  0.10789000  0.04371000  0.38811000  1
  C  C17  1  0.03490000  0.03400000  0.47720000  1
  C  C18  1  0.55373000  0.25207000  0.99747000  1
  C  C19  1  0.55375000  0.34495000  0.98815000  1
  C  C20  1  0.64373000  0.39087000  0.91907000  1
  C  C21  1  0.63937000  0.47853000  0.90873000  1
  C  C22  1  0.46029000  0.38811000  0.04371000  1
  C  C23  1  0.45390000  0.47720000  0.03400000  1
  C  C24  1  0.19673000  0.25207000  0.99747000  1
  C  C25  1  0.11315000  0.34495000  0.98815000  1
  C  C26  1  0.04633000  0.39087000  0.91907000  1
  C  C27  1  0.97337000  0.47853000  0.90873000  1
  C  C28  1  0.10789000  0.38811000  0.04371000  1
  C  C29  1  0.03490000  0.47720000  0.03400000  1
  C  C30  1  0.55373000  0.99747000  0.25207000  1
  C  C31  1  0.55375000  0.98815000  0.34495000  1
  C  C32  1  0.64373000  0.91907000  0.39087000  1
  C  C33  1  0.63937000  0.90873000  0.47853000  1
  C  C34  1  0.46029000  0.04371000  0.38811000  1
  C  C35  1  0.45390000  0.03400000  0.47720000  1
  C  C36  1  0.80327000  0.00253000  0.74793000  1
  C  C37  1  0.88685000  0.01185000  0.65505000  1
  C  C38  1  0.95367000  0.08093000  0.60913000  1
  C  C39  1  0.02663000  0.09127000  0.52147000  1
  C  C40  1  0.89211000  0.95629000  0.61189000  1
  C  C41  1  0.96510000  0.96600000  0.52280000  1
  C  C42  1  0.44627000  0.74793000  0.00253000  1
  C  C43  1  0.44625000  0.65505000  0.01185000  1
  C  C44  1  0.35627000  0.60913000  0.08093000  1
  C  C45  1  0.36063000  0.52147000  0.09127000  1
  C  C46  1  0.53971000  0.61189000  0.95629000  1
  C  C47  1  0.54610000  0.52280000  0.96600000  1
  H  H48  1  0.94756000  0.64423000  0.12821000  1
  H  H49  1  0.08125000  0.48407000  0.14707000  1
  H  H50  1  0.83650000  0.64854000  0.90108000  1
  H  H51  1  0.28000000  0.12821000  0.64423000  1
  H  H52  1  0.28761000  0.14707000  0.48407000  1
  H  H53  1  0.61388000  0.90108000  0.64854000  1
  H  H54  1  0.05244000  0.87179000  0.35577000  1
  H  H55  1  0.91875000  0.85293000  0.51593000  1
  H  H56  1  0.16350000  0.09892000  0.35146000  1
  H  H57  1  0.72000000  0.35577000  0.87179000  1
  H  H58  1  0.71239000  0.51593000  0.85293000  1
  H  H59  1  0.38612000  0.35146000  0.09892000  1
  H  H60  1  0.05244000  0.35577000  0.87179000  1
  H  H61  1  0.91875000  0.51593000  0.85293000  1
  H  H62  1  0.16350000  0.35146000  0.09892000  1
  H  H63  1  0.72000000  0.87179000  0.35577000  1
  H  H64  1  0.71239000  0.85293000  0.51593000  1
  H  H65  1  0.38612000  0.09892000  0.35146000  1
  H  H66  1  0.94756000  0.12821000  0.64423000  1
  H  H67  1  0.08125000  0.14707000  0.48407000  1
  H  H68  1  0.83650000  0.90108000  0.64854000  1
  H  H69  1  0.28000000  0.64423000  0.12821000  1
  H  H70  1  0.28761000  0.48407000  0.14707000  1
  H  H71  1  0.61388000  0.64854000  0.90108000  1
  H  H72  1  0.25506000  0.09550000  0.90450000  1
  H  H73  1  0.25506000  0.90450000  0.09550000  1
  H  H74  1  0.93506000  0.09550000  0.90450000  1
  H  H75  1  0.93506000  0.90450000  0.09550000  1
  H  H76  1  0.73716000  0.22390000  0.77610000  1
  H  H77  1  0.45296000  0.22390000  0.77610000  1
  H  H78  1  0.73716000  0.77610000  0.22390000  1
  H  H79  1  0.45296000  0.77610000  0.22390000  1
  O  O80  1  0.78777000  0.78087000  0.06299000  1
  O  O81  1  0.75115000  0.78695000  0.93655000  1
  O  O82  1  0.36837000  0.06299000  0.78087000  1
  O  O83  1  0.52535000  0.93655000  0.78695000  1
  O  O84  1  0.21223000  0.93701000  0.21913000  1
  O  O85  1  0.24885000  0.06345000  0.21305000  1
  O  O86  1  0.63163000  0.21913000  0.93701000  1
  O  O87  1  0.47465000  0.21305000  0.06345000  1
  O  O88  1  0.21223000  0.21913000  0.93701000  1
  O  O89  1  0.24885000  0.21305000  0.06345000  1
  O  O90  1  0.63163000  0.93701000  0.21913000  1
  O  O91  1  0.47465000  0.06345000  0.21305000  1
  O  O92  1  0.78777000  0.06299000  0.78087000  1
  O  O93  1  0.75115000  0.93655000  0.78695000  1
  O  O94  1  0.36837000  0.78087000  0.06299000  1
  O  O95  1  0.52535000  0.78695000  0.93655000  1
  O  O96  1  0.84000000  0.90450000  0.09550000  1
  O  O97  1  0.64210000  0.77610000  0.22390000  1
  O  O98  1  0.16000000  0.09550000  0.90450000  1
  O  O99  1  0.35790000  0.22390000  0.77610000  1
  O  O100  1  0.16000000  0.90450000  0.09550000  1
  O  O101  1  0.35790000  0.77610000  0.22390000  1
  O  O102  1  0.84000000  0.09550000  0.90450000  1
  O  O103  1  0.64210000  0.22390000  0.77610000  1
  O  O104  1  0.69799000  0.95431000  0.95431000  1
  O  O105  1  0.39339000  0.95431000  0.95431000  1
  O  O106  1  0.30201000  0.04569000  0.04569000  1
  O  O107  1  0.60661000  0.04569000  0.04569000  1
  O  O108  1  0.54590000  0.85370000  0.05450000  1
  O  O109  1  0.54590000  0.05450000  0.85370000  1
  O  O110  1  0.45410000  0.94550000  0.14630000  1
  O  O111  1  0.45410000  0.14630000  0.94550000  1
  Zr  Zr112  1  0.65162000  0.90064000  0.09936000  1
  Zr  Zr113  1  0.34838000  0.09936000  0.90064000  1
  Zr  Zr114  1  0.34838000  0.90064000  0.09936000  1
  Zr  Zr115  1  0.65162000  0.09936000  0.90064000  1
  Zr  Zr116  1  0.59552000  0.90448000  0.90448000  1
  Zr  Zr117  1  0.40448000  0.09552000  0.09552000  1
