# generated using pymatgen
data_Zr24H87C256(NO20)8
_symmetry_space_group_name_H-M   'P 1'
_cell_length_a   21.14956383
_cell_length_b   21.14956383
_cell_length_c   26.07700000
_cell_angle_alpha   90.00000000
_cell_angle_beta   90.00000000
_cell_angle_gamma   90.00000000
_symmetry_Int_Tables_number   1
_chemical_formula_structural   Zr24H87C256(NO20)8
_chemical_formula_sum   'Zr24 H87 C256 N8 O160'
_cell_volume   11664.34771185
_cell_formula_units_Z   1
loop_
 _symmetry_equiv_pos_site_id
 _symmetry_equiv_pos_as_xyz
  1  'x, y, z'
loop_
 _atom_site_type_symbol
 _atom_site_label
 _atom_site_symmetry_multiplicity
 _atom_site_fract_x
 _atom_site_fract_y
 _atom_site_fract_z
 _atom_site_occupancy
  C  C0  1  0.64530000  0.00000000  0.87659000  1
  C  C1  1  0.69320000  0.00000000  0.83467000  1
  C  C2  1  0.67340000  0.00000000  0.78512000  1
  C  C3  1  0.71750000  0.00000000  0.74428000  1
  C  C4  1  0.75780000  0.00000000  0.84622000  1
  C  C5  1  0.69800000  0.00000000  0.69230000  1
  C  C6  1  0.14530000  0.00000000  0.37659000  1
  C  C7  1  0.19320000  0.00000000  0.33467000  1
  C  C8  1  0.17340000  0.00000000  0.28512000  1
  C  C9  1  0.21750000  0.00000000  0.24428000  1
  C  C10  1  0.25780000  0.00000000  0.34622000  1
  C  C11  1  0.19800000  0.00000000  0.19230000  1
  C  C12  1  0.35470000  0.00000000  0.87659000  1
  C  C13  1  0.30680000  0.00000000  0.83467000  1
  C  C14  1  0.32660000  0.00000000  0.78512000  1
  C  C15  1  0.28250000  0.00000000  0.74428000  1
  C  C16  1  0.24220000  0.00000000  0.84622000  1
  C  C17  1  0.30200000  0.00000000  0.69230000  1
  C  C18  1  0.85470000  0.00000000  0.37659000  1
  C  C19  1  0.80680000  0.00000000  0.33467000  1
  C  C20  1  0.82660000  0.00000000  0.28512000  1
  C  C21  1  0.78250000  0.00000000  0.24428000  1
  C  C22  1  0.74220000  1.00000000  0.34622000  1
  C  C23  1  0.80200000  0.00000000  0.19230000  1
  C  C24  1  0.50000000  0.85470000  0.87659000  1
  C  C25  1  0.50000000  0.80680000  0.83467000  1
  C  C26  1  0.50000000  0.82660000  0.78512000  1
  C  C27  1  0.50000000  0.78250000  0.74428000  1
  C  C28  1  0.50000000  0.74220000  0.84622000  1
  C  C29  1  0.50000000  0.80200000  0.69230000  1
  C  C30  1  0.50000000  0.35470000  0.37659000  1
  C  C31  1  0.50000000  0.30680000  0.33467000  1
  C  C32  1  0.50000000  0.32660000  0.28512000  1
  C  C33  1  0.50000000  0.28250000  0.24428000  1
  C  C34  1  0.50000000  0.24220000  0.34622000  1
  C  C35  1  0.50000000  0.30200000  0.19230000  1
  C  C36  1  0.50000000  0.14530000  0.87659000  1
  C  C37  1  0.50000000  0.19320000  0.83467000  1
  C  C38  1  0.50000000  0.17340000  0.78512000  1
  C  C39  1  0.50000000  0.21750000  0.74428000  1
  C  C40  1  0.50000000  0.25780000  0.84622000  1
  C  C41  1  0.50000000  0.19800000  0.69230000  1
  C  C42  1  0.50000000  0.64530000  0.37659000  1
  C  C43  1  0.50000000  0.69320000  0.33467000  1
  C  C44  1  0.50000000  0.67340000  0.28512000  1
  C  C45  1  0.50000000  0.71750000  0.24428000  1
  C  C46  1  0.50000000  0.75780000  0.34622000  1
  C  C47  1  0.50000000  0.69800000  0.19230000  1
  C  C48  1  0.50000000  0.85470000  0.12341000  1
  C  C49  1  0.50000000  0.80680000  0.16533000  1
  C  C50  1  0.50000000  0.82660000  0.21488000  1
  C  C51  1  0.50000000  0.78250000  0.25572000  1
  C  C52  1  0.50000000  0.74220000  0.15378000  1
  C  C53  1  0.50000000  0.80200000  0.30770000  1
  C  C54  1  0.50000000  0.35470000  0.62341000  1
  C  C55  1  0.50000000  0.30680000  0.66533000  1
  C  C56  1  0.50000000  0.32660000  0.71488000  1
  C  C57  1  0.50000000  0.28250000  0.75572000  1
  C  C58  1  0.50000000  0.24220000  0.65378000  1
  C  C59  1  0.50000000  0.30200000  0.80770000  1
  C  C60  1  0.50000000  0.14530000  0.12341000  1
  C  C61  1  0.50000000  0.19320000  0.16533000  1
  C  C62  1  0.50000000  0.17340000  0.21488000  1
  C  C63  1  0.50000000  0.21750000  0.25572000  1
  C  C64  1  0.50000000  0.25780000  0.15378000  1
  C  C65  1  0.50000000  0.19800000  0.30770000  1
  C  C66  1  0.50000000  0.64530000  0.62341000  1
  C  C67  1  0.50000000  0.69320000  0.66533000  1
  C  C68  1  0.50000000  0.67340000  0.71488000  1
  C  C69  1  0.50000000  0.71750000  0.75572000  1
  C  C70  1  0.50000000  0.75780000  0.65378000  1
  C  C71  1  0.50000000  0.69800000  0.80770000  1
  C  C72  1  0.64530000  0.00000000  0.12341000  1
  C  C73  1  0.69320000  0.00000000  0.16533000  1
  C  C74  1  0.67340000  0.00000000  0.21488000  1
  C  C75  1  0.71750000  0.00000000  0.25572000  1
  C  C76  1  0.75780000  0.00000000  0.15378000  1
  C  C77  1  0.69800000  0.00000000  0.30770000  1
  C  C78  1  0.14530000  0.00000000  0.62341000  1
  C  C79  1  0.19320000  0.00000000  0.66533000  1
  C  C80  1  0.17340000  0.00000000  0.71488000  1
  C  C81  1  0.21750000  0.00000000  0.75572000  1
  C  C82  1  0.25780000  0.00000000  0.65378000  1
  C  C83  1  0.19800000  0.00000000  0.80770000  1
  C  C84  1  0.35470000  0.00000000  0.12341000  1
  C  C85  1  0.30680000  0.00000000  0.16533000  1
  C  C86  1  0.32660000  0.00000000  0.21488000  1
  C  C87  1  0.28250000  0.00000000  0.25572000  1
  C  C88  1  0.24220000  0.00000000  0.15378000  1
  C  C89  1  0.30200000  0.00000000  0.30770000  1
  C  C90  1  0.85470000  0.00000000  0.62341000  1
  C  C91  1  0.80680000  0.00000000  0.66533000  1
  C  C92  1  0.82660000  0.00000000  0.71488000  1
  C  C93  1  0.78250000  0.00000000  0.75572000  1
  C  C94  1  0.74220000  1.00000000  0.65378000  1
  C  C95  1  0.80200000  0.00000000  0.80770000  1
  C  C96  1  0.24480000  0.06980000  0.50000000  1
  C  C97  1  0.28855000  0.12285000  0.50000000  1
  C  C98  1  0.26635000  0.18615000  0.50000000  1
  C  C99  1  0.35025000  0.10255000  0.50000000  1
  C  C100  1  0.75520000  0.93020000  0.50000000  1
  C  C101  1  0.71145000  0.87715000  0.50000000  1
  C  C102  1  0.73365000  0.81385000  0.50000000  1
  C  C103  1  0.64975000  0.89745000  0.50000000  1
  C  C104  1  0.43020000  0.75520000  0.00000000  1
  C  C105  1  0.37715000  0.71145000  0.00000000  1
  C  C106  1  0.31385000  0.73365000  0.00000000  1
  C  C107  1  0.39745000  0.64975000  0.00000000  1
  C  C108  1  0.43020000  0.25520000  0.50000000  1
  C  C109  1  0.37715000  0.21145000  0.50000000  1
  C  C110  1  0.31385000  0.23365000  0.50000000  1
  C  C111  1  0.39745000  0.14975000  0.50000000  1
  C  C112  1  0.56980000  0.24480000  0.00000000  1
  C  C113  1  0.62285000  0.28855000  0.00000000  1
  C  C114  1  0.68615000  0.26635000  0.00000000  1
  C  C115  1  0.60255000  0.35025000  0.00000000  1
  C  C116  1  0.56980000  0.74480000  0.50000000  1
  C  C117  1  0.62285000  0.78855000  0.50000000  1
  C  C118  1  0.68615000  0.76635000  0.50000000  1
  C  C119  1  0.60255000  0.85025000  0.50000000  1
  C  C120  1  0.74480000  0.93020000  0.00000000  1
  C  C121  1  0.78855000  0.87715000  0.00000000  1
  C  C122  1  0.76635000  0.81385000  1.00000000  1
  C  C123  1  0.85025000  0.89745000  0.00000000  1
  C  C124  1  0.25520000  0.06980000  0.00000000  1
  C  C125  1  0.21145000  0.12285000  0.00000000  1
  C  C126  1  0.23365000  0.18615000  0.00000000  1
  C  C127  1  0.14975000  0.10255000  0.00000000  1
  C  C128  1  0.14530000  0.50000000  0.87659000  1
  C  C129  1  0.19320000  0.50000000  0.83467000  1
  C  C130  1  0.17340000  0.50000000  0.78512000  1
  C  C131  1  0.21750000  0.50000000  0.74428000  1
  C  C132  1  0.25780000  0.50000000  0.84622000  1
  C  C133  1  0.19800000  0.50000000  0.69230000  1
  C  C134  1  0.64530000  0.50000000  0.37659000  1
  C  C135  1  0.69320000  0.50000000  0.33467000  1
  C  C136  1  0.67340000  0.50000000  0.28512000  1
  C  C137  1  0.71750000  0.50000000  0.24428000  1
  C  C138  1  0.75780000  0.50000000  0.34622000  1
  C  C139  1  0.69800000  0.50000000  0.19230000  1
  C  C140  1  0.85470000  0.50000000  0.87659000  1
  C  C141  1  0.80680000  0.50000000  0.83467000  1
  C  C142  1  0.82660000  0.50000000  0.78512000  1
  C  C143  1  0.78250000  0.50000000  0.74428000  1
  C  C144  1  0.74220000  0.50000000  0.84622000  1
  C  C145  1  0.80200000  0.50000000  0.69230000  1
  C  C146  1  0.35470000  0.50000000  0.37659000  1
  C  C147  1  0.30680000  0.50000000  0.33467000  1
  C  C148  1  0.32660000  0.50000000  0.28512000  1
  C  C149  1  0.28250000  0.50000000  0.24428000  1
  C  C150  1  0.24220000  0.50000000  0.34622000  1
  C  C151  1  0.30200000  0.50000000  0.19230000  1
  C  C152  1  0.00000000  0.35470000  0.87659000  1
  C  C153  1  0.00000000  0.30680000  0.83467000  1
  C  C154  1  0.00000000  0.32660000  0.78512000  1
  C  C155  1  0.00000000  0.28250000  0.74428000  1
  C  C156  1  0.00000000  0.24220000  0.84622000  1
  C  C157  1  0.00000000  0.30200000  0.69230000  1
  C  C158  1  0.00000000  0.85470000  0.37659000  1
  C  C159  1  0.00000000  0.80680000  0.33467000  1
  C  C160  1  0.00000000  0.82660000  0.28512000  1
  C  C161  1  0.00000000  0.78250000  0.24428000  1
  C  C162  1  0.00000000  0.74220000  0.34622000  1
  C  C163  1  0.00000000  0.80200000  0.19230000  1
  C  C164  1  0.00000000  0.64530000  0.87659000  1
  C  C165  1  0.00000000  0.69320000  0.83467000  1
  C  C166  1  0.00000000  0.67340000  0.78512000  1
  C  C167  1  0.00000000  0.71750000  0.74428000  1
  C  C168  1  0.00000000  0.75780000  0.84622000  1
  C  C169  1  0.00000000  0.69800000  0.69230000  1
  C  C170  1  0.00000000  0.14530000  0.37659000  1
  C  C171  1  0.00000000  0.19320000  0.33467000  1
  C  C172  1  0.00000000  0.17340000  0.28512000  1
  C  C173  1  0.00000000  0.21750000  0.24428000  1
  C  C174  1  0.00000000  0.25780000  0.34622000  1
  C  C175  1  0.00000000  0.19800000  0.19230000  1
  C  C176  1  0.00000000  0.35470000  0.12341000  1
  C  C177  1  0.00000000  0.30680000  0.16533000  1
  C  C178  1  0.00000000  0.32660000  0.21488000  1
  C  C179  1  0.00000000  0.28250000  0.25572000  1
  C  C180  1  0.00000000  0.24220000  0.15378000  1
  C  C181  1  0.00000000  0.30200000  0.30770000  1
  C  C182  1  0.00000000  0.85470000  0.62341000  1
  C  C183  1  0.00000000  0.80680000  0.66533000  1
  C  C184  1  0.00000000  0.82660000  0.71488000  1
  C  C185  1  0.00000000  0.78250000  0.75572000  1
  C  C186  1  0.00000000  0.74220000  0.65378000  1
  C  C187  1  0.00000000  0.80200000  0.80770000  1
  C  C188  1  0.00000000  0.64530000  0.12341000  1
  C  C189  1  0.00000000  0.69320000  0.16533000  1
  C  C190  1  0.00000000  0.67340000  0.21488000  1
  C  C191  1  0.00000000  0.71750000  0.25572000  1
  C  C192  1  0.00000000  0.75780000  0.15378000  1
  C  C193  1  0.00000000  0.69800000  0.30770000  1
  C  C194  1  0.00000000  0.14530000  0.62341000  1
  C  C195  1  0.00000000  0.19320000  0.66533000  1
  C  C196  1  0.00000000  0.17340000  0.71488000  1
  C  C197  1  0.00000000  0.21750000  0.75572000  1
  C  C198  1  0.00000000  0.25780000  0.65378000  1
  C  C199  1  0.00000000  0.19800000  0.80770000  1
  C  C200  1  0.14530000  0.50000000  0.12341000  1
  C  C201  1  0.19320000  0.50000000  0.16533000  1
  C  C202  1  0.17340000  0.50000000  0.21488000  1
  C  C203  1  0.21750000  0.50000000  0.25572000  1
  C  C204  1  0.25780000  0.50000000  0.15378000  1
  C  C205  1  0.19800000  0.50000000  0.30770000  1
  C  C206  1  0.64530000  0.50000000  0.62341000  1
  C  C207  1  0.69320000  0.50000000  0.66533000  1
  C  C208  1  0.67340000  0.50000000  0.71488000  1
  C  C209  1  0.71750000  0.50000000  0.75572000  1
  C  C210  1  0.75780000  0.50000000  0.65378000  1
  C  C211  1  0.69800000  0.50000000  0.80770000  1
  C  C212  1  0.85470000  0.50000000  0.12341000  1
  C  C213  1  0.80680000  0.50000000  0.16533000  1
  C  C214  1  0.82660000  0.50000000  0.21488000  1
  C  C215  1  0.78250000  0.50000000  0.25572000  1
  C  C216  1  0.74220000  0.50000000  0.15378000  1
  C  C217  1  0.80200000  0.50000000  0.30770000  1
  C  C218  1  0.35470000  0.50000000  0.62341000  1
  C  C219  1  0.30680000  0.50000000  0.66533000  1
  C  C220  1  0.32660000  0.50000000  0.71488000  1
  C  C221  1  0.28250000  0.50000000  0.75572000  1
  C  C222  1  0.24220000  0.50000000  0.65378000  1
  C  C223  1  0.30200000  0.50000000  0.80770000  1
  C  C224  1  0.24480000  0.56980000  0.00000000  1
  C  C225  1  0.28855000  0.62285000  0.00000000  1
  C  C226  1  0.26635000  0.68615000  0.00000000  1
  C  C227  1  0.35025000  0.60255000  0.00000000  1
  C  C228  1  0.75520000  0.43020000  0.00000000  1
  C  C229  1  0.71145000  0.37715000  0.00000000  1
  C  C230  1  0.73365000  0.31385000  1.00000000  1
  C  C231  1  0.64975000  0.39745000  0.00000000  1
  C  C232  1  0.06980000  0.25520000  0.00000000  1
  C  C233  1  0.12285000  0.21145000  0.00000000  1
  C  C234  1  0.18615000  0.23365000  0.00000000  1
  C  C235  1  0.10255000  0.14975000  0.00000000  1
  C  C236  1  0.06980000  0.75520000  0.50000000  1
  C  C237  1  0.12285000  0.71145000  0.50000000  1
  C  C238  1  0.18615000  0.73365000  0.50000000  1
  C  C239  1  0.10255000  0.64975000  0.50000000  1
  C  C240  1  0.93020000  0.74480000  0.00000000  1
  C  C241  1  0.87715000  0.78855000  0.00000000  1
  C  C242  1  0.81385000  0.76635000  1.00000000  1
  C  C243  1  0.89745000  0.85025000  0.00000000  1
  C  C244  1  0.93020000  0.24480000  0.50000000  1
  C  C245  1  0.87715000  0.28855000  0.50000000  1
  C  C246  1  0.81385000  0.26635000  0.50000000  1
  C  C247  1  0.89745000  0.35025000  0.50000000  1
  C  C248  1  0.74480000  0.43020000  0.50000000  1
  C  C249  1  0.78855000  0.37715000  0.50000000  1
  C  C250  1  0.76635000  0.31385000  0.50000000  1
  C  C251  1  0.85025000  0.39745000  0.50000000  1
  C  C252  1  0.25520000  0.56980000  0.50000000  1
  C  C253  1  0.21145000  0.62285000  0.50000000  1
  C  C254  1  0.23365000  0.68615000  0.50000000  1
  C  C255  1  0.14975000  0.60255000  0.50000000  1
  H  H256  1  0.62068000  0.00000000  0.77600000  1
  H  H257  1  0.77407000  0.00000000  0.88790000  1
  H  H258  1  0.12068000  0.00000000  0.27600000  1
  H  H259  1  0.27406500  0.00000500  0.38790000  1
  H  H260  1  0.37932000  0.00000000  0.77600000  1
  H  H261  1  0.22592500  0.99999500  0.88790000  1
  H  H262  1  0.87932000  0.00000000  0.27600000  1
  H  H263  1  0.72592000  0.00000000  0.38790000  1
  H  H264  1  0.50000000  0.87932000  0.77600000  1
  H  H265  1  0.49999500  0.72592500  0.88790000  1
  H  H266  1  0.50000000  0.37932000  0.27600000  1
  H  H267  1  0.49999000  0.22593000  0.38790000  1
  H  H268  1  0.50000000  0.12068000  0.77600000  1
  H  H269  1  0.50000000  0.27407000  0.88790000  1
  H  H270  1  0.50000000  0.62068000  0.27600000  1
  H  H271  1  0.49999500  0.77407500  0.38790000  1
  H  H272  1  0.50000000  0.87932000  0.22400000  1
  H  H273  1  0.49999500  0.72592500  0.11210000  1
  H  H274  1  0.50000000  0.37932000  0.72400000  1
  H  H275  1  0.49999000  0.22593000  0.61210000  1
  H  H276  1  0.50000000  0.12068000  0.22400000  1
  H  H277  1  0.50000000  0.27407000  0.11210000  1
  H  H278  1  0.50000000  0.62068000  0.72400000  1
  H  H279  1  0.49999500  0.77407500  0.61210000  1
  H  H280  1  0.62068000  0.00000000  0.22400000  1
  H  H281  1  0.77407000  0.00000000  0.11210000  1
  H  H282  1  0.12068000  0.00000000  0.72400000  1
  H  H283  1  0.27406500  0.00000500  0.61210000  1
  H  H284  1  0.37932000  0.00000000  0.22400000  1
  H  H285  1  0.22592500  0.99999500  0.11210000  1
  H  H286  1  0.87932000  0.00000000  0.72400000  1
  H  H287  1  0.72592000  0.00000000  0.61210000  1
  H  H288  1  0.21338000  0.19612000  0.50000000  1
  H  H289  1  0.78662000  0.80386000  0.50000000  1
  H  H290  1  0.30386500  0.78662500  0.00000000  1
  H  H291  1  0.45022000  0.63874000  0.00000000  1
  H  H292  1  0.30387000  0.28661000  0.50000000  1
  H  H293  1  0.69613500  0.21337500  0.00000000  1
  H  H294  1  0.54978500  0.36126500  1.00000000  1
  H  H295  1  0.69613000  0.71337000  0.50000000  1
  H  H296  1  0.54978500  0.86126500  0.50000000  1
  H  H297  1  0.71337500  0.80387500  0.00000000  1
  H  H298  1  0.86126500  0.95021500  1.00000000  1
  H  H299  1  0.28663000  0.19613000  0.00000000  1
  H  H300  1  0.13874000  0.04978000  0.00000000  1
  H  H301  1  0.12068000  0.50000000  0.77600000  1
  H  H302  1  0.27407000  0.50000000  0.88790000  1
  H  H303  1  0.62068000  0.50000000  0.27600000  1
  H  H304  1  0.77406500  0.50000500  0.38790000  1
  H  H305  1  0.87932000  0.50000000  0.77600000  1
  H  H306  1  0.72592500  0.49999500  0.88790000  1
  H  H307  1  0.37932000  0.50000000  0.27600000  1
  H  H308  1  0.22592000  0.50000000  0.38790000  1
  H  H309  1  0.00000000  0.37932000  0.77600000  1
  H  H310  1  0.99999500  0.22592500  0.88790000  1
  H  H311  1  0.00000000  0.87932000  0.27600000  1
  H  H312  1  0.99999000  0.72593000  0.38790000  1
  H  H313  1  0.00000000  0.62068000  0.77600000  1
  H  H314  1  0.00000000  0.77407000  0.88790000  1
  H  H315  1  0.00000000  0.12068000  0.27600000  1
  H  H316  1  0.99999500  0.27407500  0.38790000  1
  H  H317  1  0.00000000  0.37932000  0.22400000  1
  H  H318  1  0.99999500  0.22592500  0.11210000  1
  H  H319  1  0.00000000  0.87932000  0.72400000  1
  H  H320  1  0.99999000  0.72593000  0.61210000  1
  H  H321  1  0.00000000  0.62068000  0.22400000  1
  H  H322  1  0.00000000  0.77407000  0.11210000  1
  H  H323  1  0.00000000  0.12068000  0.72400000  1
  H  H324  1  0.99999500  0.27407500  0.61210000  1
  H  H325  1  0.12068000  0.50000000  0.22400000  1
  H  H326  1  0.27407000  0.50000000  0.11210000  1
  H  H327  1  0.62068000  0.50000000  0.72400000  1
  H  H328  1  0.77406500  0.50000500  0.61210000  1
  H  H329  1  0.87932000  0.50000000  0.22400000  1
  H  H330  1  0.72592500  0.49999500  0.11210000  1
  H  H331  1  0.37932000  0.50000000  0.72400000  1
  H  H332  1  0.22592000  0.50000000  0.61210000  1
  H  H333  1  0.21337500  0.69613500  0.00000000  1
  H  H334  1  0.78662500  0.30386500  1.00000000  1
  H  H335  1  0.19613000  0.28663000  0.00000000  1
  H  H336  1  0.19613000  0.78663000  0.50000000  1
  H  H337  1  0.80387500  0.71337500  0.00000000  1
  H  H338  1  0.80387000  0.21339000  0.50000000  1
  H  H339  1  0.71338000  0.30388000  0.50000000  1
  H  H340  1  0.86127000  0.45021000  0.50000000  1
  H  H341  1  0.28662000  0.69614000  0.50000000  1
  H  H342  1  0.13873500  0.54978500  0.50000000  1
  N  N343  1  0.37545000  0.04355000  0.50000000  1
  N  N344  1  0.62455000  0.95645000  0.50000000  1
  N  N345  1  0.37545000  0.54355000  1.00000000  1
  N  N346  1  0.62455000  0.45645000  0.00000000  1
  N  N347  1  0.04355000  0.12455000  0.00000000  1
  N  N348  1  0.04355000  0.62455000  0.50000000  1
  N  N349  1  0.95645000  0.87545000  0.00000000  1
  N  N350  1  0.95645000  0.37545000  0.50000000  1
  O  O351  1  0.55920000  0.94080000  0.95483000  1
  O  O352  1  0.55920000  0.44080000  0.45483000  1
  O  O353  1  0.44080000  0.05920000  0.95483000  1
  O  O354  1  0.94080000  0.05920000  0.45483000  1
  O  O355  1  0.44080000  0.94080000  0.95483000  1
  O  O356  1  0.94080000  0.94080000  0.45483000  1
  O  O357  1  0.55920000  0.05920000  0.95483000  1
  O  O358  1  0.55920000  0.55920000  0.45483000  1
  O  O359  1  0.55920000  0.94080000  0.04517000  1
  O  O360  1  0.55920000  0.44080000  0.54517000  1
  O  O361  1  0.44080000  0.05920000  0.04517000  1
  O  O362  1  0.94080000  0.05920000  0.54517000  1
  O  O363  1  0.55920000  0.05920000  0.04517000  1
  O  O364  1  0.55920000  0.55920000  0.54517000  1
  O  O365  1  0.44080000  0.94080000  0.04517000  1
  O  O366  1  0.94080000  0.94080000  0.54517000  1
  O  O367  1  0.58844000  0.00000000  0.86323000  1
  O  O368  1  0.66528000  0.00000000  0.92231000  1
  O  O369  1  0.08846000  0.00000000  0.36323000  1
  O  O370  1  0.16529500  0.99999500  0.42231000  1
  O  O371  1  0.41155000  0.99999000  0.86323000  1
  O  O372  1  0.33471000  0.00001000  0.92231000  1
  O  O373  1  0.91156000  0.00000000  0.36323000  1
  O  O374  1  0.83471500  0.00000500  0.42231000  1
  O  O375  1  0.49999000  0.91155000  0.86323000  1
  O  O376  1  0.50000000  0.83472000  0.92231000  1
  O  O377  1  0.50001000  0.41155000  0.36323000  1
  O  O378  1  0.50001000  0.33471000  0.42231000  1
  O  O379  1  0.50000000  0.08844000  0.86323000  1
  O  O380  1  0.49999000  0.16529000  0.92231000  1
  O  O381  1  0.50001000  0.58845000  0.36323000  1
  O  O382  1  0.50000000  0.66529000  0.42231000  1
  O  O383  1  0.49999000  0.91155000  0.13677000  1
  O  O384  1  0.50000000  0.83472000  0.07769000  1
  O  O385  1  0.50001000  0.41155000  0.63677000  1
  O  O386  1  0.50001000  0.33471000  0.57769000  1
  O  O387  1  0.50000000  0.08844000  0.13677000  1
  O  O388  1  0.49999000  0.16529000  0.07769000  1
  O  O389  1  0.50001000  0.58845000  0.63677000  1
  O  O390  1  0.50000000  0.66529000  0.57769000  1
  O  O391  1  0.58844000  0.00000000  0.13677000  1
  O  O392  1  0.66528000  0.00000000  0.07769000  1
  O  O393  1  0.08846000  0.00000000  0.63677000  1
  O  O394  1  0.16529500  0.99999500  0.57769000  1
  O  O395  1  0.41155000  0.99999000  0.13677000  1
  O  O396  1  0.33471000  0.00001000  0.07769000  1
  O  O397  1  0.91156000  0.00000000  0.63677000  1
  O  O398  1  0.83471500  0.00000500  0.57769000  1
  O  O399  1  0.68635000  0.07935000  0.00000000  1
  O  O400  1  0.18635000  0.07935000  0.50000000  1
  O  O401  1  0.26555000  0.00865000  0.50000000  1
  O  O402  1  0.31365000  0.92065000  0.00000000  1
  O  O403  1  0.81365000  0.92065000  0.50000000  1
  O  O404  1  0.73445000  0.99135000  0.50000000  1
  O  O405  1  0.57935000  0.81365000  0.00000000  1
  O  O406  1  0.57935000  0.31365000  0.50000000  1
  O  O407  1  0.42065000  0.18635000  0.00000000  1
  O  O408  1  0.42065000  0.68635000  0.50000000  1
  O  O409  1  0.42065000  0.81365000  0.00000000  1
  O  O410  1  0.49135000  0.73445000  0.00000000  1
  O  O411  1  0.42065000  0.31365000  0.50000000  1
  O  O412  1  0.49135000  0.23445000  0.50000000  1
  O  O413  1  0.57935000  0.18635000  0.00000000  1
  O  O414  1  0.50865000  0.26555000  0.00000000  1
  O  O415  1  0.57935000  0.68635000  0.50000000  1
  O  O416  1  0.50865000  0.76555000  0.50000000  1
  O  O417  1  0.68635000  0.92065000  0.00000000  1
  O  O418  1  0.76555000  0.99135000  0.00000000  1
  O  O419  1  0.18635000  0.92065000  0.50000000  1
  O  O420  1  0.31365000  0.07935000  1.00000000  1
  O  O421  1  0.23445000  0.00865000  0.00000000  1
  O  O422  1  0.81365000  0.07935000  0.50000000  1
  O  O423  1  0.42492500  0.03614500  0.51287000  1
  O  O424  1  0.65341000  0.99731000  0.51287000  1
  O  O425  1  0.34659000  0.00269000  0.48713000  1
  O  O426  1  0.57507000  0.96385000  0.48713000  1
  O  O427  1  0.05920000  0.44080000  0.95483000  1
  O  O428  1  0.05920000  0.94080000  0.45483000  1
  O  O429  1  0.94080000  0.55920000  0.95483000  1
  O  O430  1  0.44080000  0.55920000  0.45483000  1
  O  O431  1  0.94080000  0.44080000  0.95483000  1
  O  O432  1  0.44080000  0.44080000  0.45483000  1
  O  O433  1  0.05920000  0.55920000  0.95483000  1
  O  O434  1  0.05920000  0.05920000  0.45483000  1
  O  O435  1  0.05920000  0.44080000  0.04517000  1
  O  O436  1  0.05920000  0.94080000  0.54517000  1
  O  O437  1  0.94080000  0.55920000  0.04517000  1
  O  O438  1  0.44080000  0.55920000  0.54517000  1
  O  O439  1  0.05920000  0.55920000  0.04517000  1
  O  O440  1  0.05920000  0.05920000  0.54517000  1
  O  O441  1  0.94080000  0.44080000  0.04517000  1
  O  O442  1  0.44080000  0.44080000  0.54517000  1
  O  O443  1  0.08844000  0.50000000  0.86323000  1
  O  O444  1  0.16528000  0.50000000  0.92231000  1
  O  O445  1  0.58846000  0.50000000  0.36323000  1
  O  O446  1  0.66529500  0.49999500  0.42231000  1
  O  O447  1  0.91155000  0.49999000  0.86323000  1
  O  O448  1  0.83471000  0.50001000  0.92231000  1
  O  O449  1  0.41156000  0.50000000  0.36323000  1
  O  O450  1  0.33471500  0.50000500  0.42231000  1
  O  O451  1  0.99999000  0.41155000  0.86323000  1
  O  O452  1  0.00000000  0.33472000  0.92231000  1
  O  O453  1  0.00001000  0.91155000  0.36323000  1
  O  O454  1  0.00001000  0.83471000  0.42231000  1
  O  O455  1  0.00000000  0.58844000  0.86323000  1
  O  O456  1  0.99999000  0.66529000  0.92231000  1
  O  O457  1  0.00001000  0.08845000  0.36323000  1
  O  O458  1  0.00000000  0.16529000  0.42231000  1
  O  O459  1  0.99999000  0.41155000  0.13677000  1
  O  O460  1  0.00000000  0.33472000  0.07769000  1
  O  O461  1  0.00001000  0.91155000  0.63677000  1
  O  O462  1  0.00001000  0.83471000  0.57769000  1
  O  O463  1  0.00000000  0.58844000  0.13677000  1
  O  O464  1  0.99999000  0.66529000  0.07769000  1
  O  O465  1  0.00001000  0.08845000  0.63677000  1
  O  O466  1  0.00000000  0.16529000  0.57769000  1
  O  O467  1  0.08844000  0.50000000  0.13677000  1
  O  O468  1  0.16528000  0.50000000  0.07769000  1
  O  O469  1  0.58846000  0.50000000  0.63677000  1
  O  O470  1  0.66529500  0.49999500  0.57769000  1
  O  O471  1  0.91155000  0.49999000  0.13677000  1
  O  O472  1  0.83471000  0.50001000  0.07769000  1
  O  O473  1  0.41156000  0.50000000  0.63677000  1
  O  O474  1  0.33471500  0.50000500  0.57769000  1
  O  O475  1  0.18635000  0.57935000  0.00000000  1
  O  O476  1  0.26555000  0.50865000  0.00000000  1
  O  O477  1  0.68635000  0.57935000  0.50000000  1
  O  O478  1  0.81365000  0.42065000  0.00000000  1
  O  O479  1  0.73445000  0.49135000  0.00000000  1
  O  O480  1  0.31365000  0.42065000  0.50000000  1
  O  O481  1  0.07935000  0.31365000  0.00000000  1
  O  O482  1  0.00865000  0.23445000  0.00000000  1
  O  O483  1  0.07935000  0.81365000  0.50000000  1
  O  O484  1  0.00865000  0.73445000  0.50000000  1
  O  O485  1  0.92065000  0.68635000  0.00000000  1
  O  O486  1  0.99135000  0.76555000  1.00000000  1
  O  O487  1  0.92065000  0.18635000  0.50000000  1
  O  O488  1  0.99135000  0.26555000  0.50000000  1
  O  O489  1  0.92065000  0.31365000  0.00000000  1
  O  O490  1  0.92065000  0.81365000  0.50000000  1
  O  O491  1  0.07935000  0.68635000  0.00000000  1
  O  O492  1  0.07935000  0.18635000  0.50000000  1
  O  O493  1  0.18635000  0.42065000  0.00000000  1
  O  O494  1  0.68635000  0.42065000  0.50000000  1
  O  O495  1  0.76555000  0.49135000  0.50000000  1
  O  O496  1  0.81365000  0.57935000  1.00000000  1
  O  O497  1  0.31365000  0.57935000  0.50000000  1
  O  O498  1  0.23445000  0.50865000  0.50000000  1
  O  O499  1  0.42492500  0.53614500  0.01287000  1
  O  O500  1  0.65341000  0.49731000  0.01287000  1
  O  O501  1  0.03250500  0.08360500  0.02508000  1
  O  O502  1  0.03250000  0.58360000  0.52508000  1
  O  O503  1  0.99367000  0.85511000  0.02508000  1
  O  O504  1  0.99366500  0.35512500  0.52508000  1
  O  O505  1  0.34659000  0.50269000  0.98713000  1
  O  O506  1  0.57508000  0.46386000  0.98713000  1
  O  O507  1  0.00632500  0.14487500  0.97492000  1
  O  O508  1  0.00633000  0.64488000  0.47492000  1
  O  O509  1  0.96749000  0.91639000  0.97492000  1
  O  O510  1  0.96749000  0.41639000  0.47492000  1
  Zr  Zr511  1  0.50000000  0.00000000  0.90591000  1
  Zr  Zr512  1  0.00000000  0.00000000  0.40591000  1
  Zr  Zr513  1  0.50000000  0.00000000  0.09409000  1
  Zr  Zr514  1  0.00000000  0.00000000  0.59409000  1
  Zr  Zr515  1  0.61838000  0.00000000  0.00000000  1
  Zr  Zr516  1  0.11840000  0.00000000  0.50000000  1
  Zr  Zr517  1  0.38161000  0.99999000  0.00000000  1
  Zr  Zr518  1  0.88161000  0.00000000  0.50000000  1
  Zr  Zr519  1  0.49999000  0.88161000  0.00000000  1
  Zr  Zr520  1  0.50000500  0.38160500  0.50000000  1
  Zr  Zr521  1  0.50000000  0.11838000  0.00000000  1
  Zr  Zr522  1  0.50000500  0.61839500  0.50000000  1
  Zr  Zr523  1  0.00000000  0.50000000  0.90591000  1
  Zr  Zr524  1  0.50000000  0.50000000  0.40591000  1
  Zr  Zr525  1  0.00000000  0.50000000  0.09409000  1
  Zr  Zr526  1  0.50000000  0.50000000  0.59409000  1
  Zr  Zr527  1  0.11838000  0.50000000  0.00000000  1
  Zr  Zr528  1  0.61840000  0.50000000  0.50000000  1
  Zr  Zr529  1  0.88161000  0.49999000  0.00000000  1
  Zr  Zr530  1  0.38161000  0.50000000  0.50000000  1
  Zr  Zr531  1  0.99999000  0.38161000  0.00000000  1
  Zr  Zr532  1  0.00000500  0.88160500  0.50000000  1
  Zr  Zr533  1  0.00000000  0.61838000  0.00000000  1
  Zr  Zr534  1  0.00000500  0.11839500  0.50000000  1
