# generated using pymatgen
data_Zr12H67(C3O2)32
_symmetry_space_group_name_H-M   'P 1'
_cell_length_a   17.44500000
_cell_length_b   17.44500000
_cell_length_c   22.93400000
_cell_angle_alpha   90.00000000
_cell_angle_beta   90.00000000
_cell_angle_gamma   90.00000000
_symmetry_Int_Tables_number   1
_chemical_formula_structural   Zr12H67(C3O2)32
_chemical_formula_sum   'Zr12 H67 C96 O64'
_cell_volume   6979.45892535
_cell_formula_units_Z   1
loop_
 _symmetry_equiv_pos_site_id
 _symmetry_equiv_pos_as_xyz
  1  'x, y, z'
loop_
 _atom_site_type_symbol
 _atom_site_label
 _atom_site_symmetry_multiplicity
 _atom_site_fract_x
 _atom_site_fract_y
 _atom_site_fract_z
 _atom_site_occupancy
  Zr  Zr0  1  0.00000000  0.00000000  0.10696000  1
  Zr  Zr1  1  0.50000000  0.50000000  0.60696000  1
  Zr  Zr2  1  0.00000000  0.00000000  0.89304000  1
  Zr  Zr3  1  0.50000000  0.50000000  0.39304000  1
  Zr  Zr4  1  0.10113000  0.10113000  0.00000000  1
  Zr  Zr5  1  0.60113000  0.60113000  0.50000000  1
  Zr  Zr6  1  0.89887000  0.89887000  0.00000000  1
  Zr  Zr7  1  0.39887000  0.39887000  0.50000000  1
  Zr  Zr8  1  0.89887000  0.10113000  0.00000000  1
  Zr  Zr9  1  0.39887000  0.60113000  0.50000000  1
  Zr  Zr10  1  0.10113000  0.89887000  0.00000000  1
  Zr  Zr11  1  0.60113000  0.39887000  0.50000000  1
  H  H12  1  0.10503000  0.10503000  0.25408000  1
  H  H13  1  0.17281000  0.17281000  0.33564000  1
  H  H14  1  0.23110000  0.23110000  0.12916000  1
  H  H15  1  0.60503000  0.60503000  0.75408000  1
  H  H16  1  0.67281000  0.67281000  0.83564000  1
  H  H17  1  0.73110000  0.73110000  0.62916000  1
  H  H18  1  0.89497000  0.89497000  0.25408000  1
  H  H19  1  0.82719000  0.82719000  0.33564000  1
  H  H20  1  0.76890000  0.76890000  0.12916000  1
  H  H21  1  0.39497000  0.39497000  0.75408000  1
  H  H22  1  0.32719000  0.32719000  0.83564000  1
  H  H23  1  0.26890000  0.26890000  0.62916000  1
  H  H24  1  0.89497000  0.10503000  0.25408000  1
  H  H25  1  0.82719000  0.17281000  0.33564000  1
  H  H26  1  0.76890000  0.23110000  0.12916000  1
  H  H27  1  0.39497000  0.60503000  0.75408000  1
  H  H28  1  0.32719000  0.67281000  0.83564000  1
  H  H29  1  0.26890000  0.73110000  0.62916000  1
  H  H30  1  0.10503000  0.89497000  0.25408000  1
  H  H31  1  0.17281000  0.82719000  0.33564000  1
  H  H32  1  0.23110000  0.76890000  0.12916000  1
  H  H33  1  0.60503000  0.39497000  0.75408000  1
  H  H34  1  0.67281000  0.32719000  0.83564000  1
  H  H35  1  0.73110000  0.26890000  0.62916000  1
  H  H36  1  0.89497000  0.10503000  0.74592000  1
  H  H37  1  0.82719000  0.17281000  0.66436000  1
  H  H38  1  0.76890000  0.23110000  0.87084000  1
  H  H39  1  0.39497000  0.60503000  0.24592000  1
  H  H40  1  0.32719000  0.67281000  0.16436000  1
  H  H41  1  0.26890000  0.73110000  0.37084000  1
  H  H42  1  0.10503000  0.89497000  0.74592000  1
  H  H43  1  0.17281000  0.82719000  0.66436000  1
  H  H44  1  0.23110000  0.76890000  0.87084000  1
  H  H45  1  0.60503000  0.39497000  0.24592000  1
  H  H46  1  0.67281000  0.32719000  0.16436000  1
  H  H47  1  0.73110000  0.26890000  0.37084000  1
  H  H48  1  0.10503000  0.10503000  0.74592000  1
  H  H49  1  0.17281000  0.17281000  0.66436000  1
  H  H50  1  0.23110000  0.23110000  0.87084000  1
  H  H51  1  0.60503000  0.60503000  0.24592000  1
  H  H52  1  0.67281000  0.67281000  0.16436000  1
  H  H53  1  0.73110000  0.73110000  0.37084000  1
  H  H54  1  0.89497000  0.89497000  0.74592000  1
  H  H55  1  0.82719000  0.82719000  0.66436000  1
  H  H56  1  0.76890000  0.76890000  0.87084000  1
  H  H57  1  0.39497000  0.39497000  0.24592000  1
  H  H58  1  0.32719000  0.32719000  0.16436000  1
  H  H59  1  0.26890000  0.26890000  0.37084000  1
  H  H60  1  0.46513000  0.72700000  0.50000000  1
  H  H61  1  0.66213000  0.72700000  0.50000000  1
  H  H62  1  0.46513000  0.27300000  0.50000000  1
  H  H63  1  0.66213000  0.27300000  0.50000000  1
  H  H64  1  0.29063000  0.90150000  0.00000000  1
  H  H65  1  0.79063000  0.40150000  0.50000000  1
  H  H66  1  0.79063000  0.59850000  0.50000000  1
  H  H67  1  0.29063000  0.09850000  0.00000000  1
  H  H68  1  0.16213000  0.22700000  0.00000000  1
  H  H69  1  0.16213000  0.77300000  0.00000000  1
  H  H70  1  0.96513000  0.77300000  0.00000000  1
  H  H71  1  0.96513000  0.22700000  0.00000000  1
  H  H72  1  0.06363000  0.09940000  0.94840000  1
  H  H73  1  0.33663000  0.40150000  0.50000000  1
  H  H74  1  0.33663000  0.59850000  0.50000000  1
  H  H75  1  0.83663000  0.90150000  0.00000000  1
  H  H76  1  0.83663000  0.09850000  0.00000000  1
  H  H77  1  0.21056000  0.41096000  0.50590000  1
  H  H78  1  0.21458000  0.61642000  0.48649000  1
  C  C79  1  0.12520000  0.12520000  0.14050000  1
  C  C80  1  0.16730000  0.16730000  0.18920000  1
  C  C81  1  0.15030000  0.15030000  0.24410000  1
  C  C82  1  0.18720000  0.18720000  0.28840000  1
  C  C83  1  0.21760000  0.21760000  0.17670000  1
  C  C84  1  0.25930000  0.25930000  0.22170000  1
  C  C85  1  0.62520000  0.62520000  0.64050000  1
  C  C86  1  0.66730000  0.66730000  0.68920000  1
  C  C87  1  0.65030000  0.65030000  0.74410000  1
  C  C88  1  0.68720000  0.68720000  0.78840000  1
  C  C89  1  0.71760000  0.71760000  0.67670000  1
  C  C90  1  0.75930000  0.75930000  0.72170000  1
  C  C91  1  0.87480000  0.87480000  0.14050000  1
  C  C92  1  0.83270000  0.83270000  0.18920000  1
  C  C93  1  0.84970000  0.84970000  0.24410000  1
  C  C94  1  0.81280000  0.81280000  0.28840000  1
  C  C95  1  0.78240000  0.78240000  0.17670000  1
  C  C96  1  0.74070000  0.74070000  0.22170000  1
  C  C97  1  0.37480000  0.37480000  0.64050000  1
  C  C98  1  0.33270000  0.33270000  0.68920000  1
  C  C99  1  0.34970000  0.34970000  0.74410000  1
  C  C100  1  0.31280000  0.31280000  0.78840000  1
  C  C101  1  0.28240000  0.28240000  0.67670000  1
  C  C102  1  0.24070000  0.24070000  0.72170000  1
  C  C103  1  0.87480000  0.12520000  0.14050000  1
  C  C104  1  0.83270000  0.16730000  0.18920000  1
  C  C105  1  0.84970000  0.15030000  0.24410000  1
  C  C106  1  0.81280000  0.18720000  0.28840000  1
  C  C107  1  0.78240000  0.21760000  0.17670000  1
  C  C108  1  0.74070000  0.25930000  0.22170000  1
  C  C109  1  0.37480000  0.62520000  0.64050000  1
  C  C110  1  0.33270000  0.66730000  0.68920000  1
  C  C111  1  0.34970000  0.65030000  0.74410000  1
  C  C112  1  0.31280000  0.68720000  0.78840000  1
  C  C113  1  0.28240000  0.71760000  0.67670000  1
  C  C114  1  0.24070000  0.75930000  0.72170000  1
  C  C115  1  0.12520000  0.87480000  0.14050000  1
  C  C116  1  0.16730000  0.83270000  0.18920000  1
  C  C117  1  0.15030000  0.84970000  0.24410000  1
  C  C118  1  0.18720000  0.81280000  0.28840000  1
  C  C119  1  0.21760000  0.78240000  0.17670000  1
  C  C120  1  0.25930000  0.74070000  0.22170000  1
  C  C121  1  0.62520000  0.37480000  0.64050000  1
  C  C122  1  0.66730000  0.33270000  0.68920000  1
  C  C123  1  0.65030000  0.34970000  0.74410000  1
  C  C124  1  0.68720000  0.31280000  0.78840000  1
  C  C125  1  0.71760000  0.28240000  0.67670000  1
  C  C126  1  0.75930000  0.24070000  0.72170000  1
  C  C127  1  0.87480000  0.12520000  0.85950000  1
  C  C128  1  0.83270000  0.16730000  0.81080000  1
  C  C129  1  0.84970000  0.15030000  0.75590000  1
  C  C130  1  0.81280000  0.18720000  0.71160000  1
  C  C131  1  0.78240000  0.21760000  0.82330000  1
  C  C132  1  0.74070000  0.25930000  0.77830000  1
  C  C133  1  0.37480000  0.62520000  0.35950000  1
  C  C134  1  0.33270000  0.66730000  0.31080000  1
  C  C135  1  0.34970000  0.65030000  0.25590000  1
  C  C136  1  0.31280000  0.68720000  0.21160000  1
  C  C137  1  0.28240000  0.71760000  0.32330000  1
  C  C138  1  0.24070000  0.75930000  0.27830000  1
  C  C139  1  0.12520000  0.87480000  0.85950000  1
  C  C140  1  0.16730000  0.83270000  0.81080000  1
  C  C141  1  0.15030000  0.84970000  0.75590000  1
  C  C142  1  0.18720000  0.81280000  0.71160000  1
  C  C143  1  0.21760000  0.78240000  0.82330000  1
  C  C144  1  0.25930000  0.74070000  0.77830000  1
  C  C145  1  0.62520000  0.37480000  0.35950000  1
  C  C146  1  0.66730000  0.33270000  0.31080000  1
  C  C147  1  0.65030000  0.34970000  0.25590000  1
  C  C148  1  0.68720000  0.31280000  0.21160000  1
  C  C149  1  0.71760000  0.28240000  0.32330000  1
  C  C150  1  0.75930000  0.24070000  0.27830000  1
  C  C151  1  0.12520000  0.12520000  0.85950000  1
  C  C152  1  0.16730000  0.16730000  0.81080000  1
  C  C153  1  0.15030000  0.15030000  0.75590000  1
  C  C154  1  0.18720000  0.18720000  0.71160000  1
  C  C155  1  0.21760000  0.21760000  0.82330000  1
  C  C156  1  0.25930000  0.25930000  0.77830000  1
  C  C157  1  0.62520000  0.62520000  0.35950000  1
  C  C158  1  0.66730000  0.66730000  0.31080000  1
  C  C159  1  0.65030000  0.65030000  0.25590000  1
  C  C160  1  0.68720000  0.68720000  0.21160000  1
  C  C161  1  0.71760000  0.71760000  0.32330000  1
  C  C162  1  0.75930000  0.75930000  0.27830000  1
  C  C163  1  0.87480000  0.87480000  0.85950000  1
  C  C164  1  0.83270000  0.83270000  0.81080000  1
  C  C165  1  0.84970000  0.84970000  0.75590000  1
  C  C166  1  0.81280000  0.81280000  0.71160000  1
  C  C167  1  0.78240000  0.78240000  0.82330000  1
  C  C168  1  0.74070000  0.74070000  0.77830000  1
  C  C169  1  0.37480000  0.37480000  0.35950000  1
  C  C170  1  0.33270000  0.33270000  0.31080000  1
  C  C171  1  0.34970000  0.34970000  0.25590000  1
  C  C172  1  0.31280000  0.31280000  0.21160000  1
  C  C173  1  0.28240000  0.28240000  0.32330000  1
  C  C174  1  0.24070000  0.24070000  0.27830000  1
  O  O175  1  0.09940000  0.00000000  0.05160000  1
  O  O176  1  0.59940000  0.50000000  0.55160000  1
  O  O177  1  0.90060000  0.00000000  0.05160000  1
  O  O178  1  0.40060000  0.50000000  0.55160000  1
  O  O179  1  0.00000000  0.09940000  0.05160000  1
  O  O180  1  0.50000000  0.59940000  0.55160000  1
  O  O181  1  0.00000000  0.90060000  0.05160000  1
  O  O182  1  0.50000000  0.40060000  0.55160000  1
  O  O183  1  0.90060000  0.00000000  0.94840000  1
  O  O184  1  0.40060000  0.50000000  0.44840000  1
  O  O185  1  0.09940000  0.00000000  0.94840000  1
  O  O186  1  0.59940000  0.50000000  0.44840000  1
  O  O187  1  0.00000000  0.09940000  0.94840000  1
  O  O188  1  0.50000000  0.59940000  0.44840000  1
  O  O189  1  0.00000000  0.90060000  0.94840000  1
  O  O190  1  0.50000000  0.40060000  0.44840000  1
  O  O191  1  0.07552000  0.07552000  0.15590000  1
  O  O192  1  0.14180000  0.14180000  0.08860000  1
  O  O193  1  0.57552000  0.57552000  0.65590000  1
  O  O194  1  0.64180000  0.64180000  0.58860000  1
  O  O195  1  0.92448000  0.92448000  0.15590000  1
  O  O196  1  0.85820000  0.85820000  0.08860000  1
  O  O197  1  0.42448000  0.42448000  0.65590000  1
  O  O198  1  0.35820000  0.35820000  0.58860000  1
  O  O199  1  0.92448000  0.07552000  0.15590000  1
  O  O200  1  0.85820000  0.14180000  0.08860000  1
  O  O201  1  0.42448000  0.57552000  0.65590000  1
  O  O202  1  0.35820000  0.64180000  0.58860000  1
  O  O203  1  0.07552000  0.92448000  0.15590000  1
  O  O204  1  0.14180000  0.85820000  0.08860000  1
  O  O205  1  0.57552000  0.42448000  0.65590000  1
  O  O206  1  0.64180000  0.35820000  0.58860000  1
  O  O207  1  0.92448000  0.07552000  0.84410000  1
  O  O208  1  0.85820000  0.14180000  0.91140000  1
  O  O209  1  0.42448000  0.57552000  0.34410000  1
  O  O210  1  0.35820000  0.64180000  0.41140000  1
  O  O211  1  0.07552000  0.92448000  0.84410000  1
  O  O212  1  0.14180000  0.85820000  0.91140000  1
  O  O213  1  0.57552000  0.42448000  0.34410000  1
  O  O214  1  0.64180000  0.35820000  0.41140000  1
  O  O215  1  0.07552000  0.07552000  0.84410000  1
  O  O216  1  0.14180000  0.14180000  0.91140000  1
  O  O217  1  0.57552000  0.57552000  0.34410000  1
  O  O218  1  0.64180000  0.64180000  0.41140000  1
  O  O219  1  0.92448000  0.92448000  0.84410000  1
  O  O220  1  0.85820000  0.85820000  0.91140000  1
  O  O221  1  0.42448000  0.42448000  0.34410000  1
  O  O222  1  0.35820000  0.35820000  0.41140000  1
  O  O223  1  0.09850000  0.22700000  0.00000000  1
  O  O224  1  0.59850000  0.72700000  0.50000000  1
  O  O225  1  0.90150000  0.77300000  0.00000000  1
  O  O226  1  0.40150000  0.27300000  0.50000000  1
  O  O227  1  0.77300000  0.09850000  0.00000000  1
  O  O228  1  0.27300000  0.59850000  0.50000000  1
  O  O229  1  0.22700000  0.90150000  0.00000000  1
  O  O230  1  0.72700000  0.40150000  0.50000000  1
  O  O231  1  0.90150000  0.22700000  0.00000000  1
  O  O232  1  0.40150000  0.72700000  0.50000000  1
  O  O233  1  0.09850000  0.77300000  0.00000000  1
  O  O234  1  0.59850000  0.27300000  0.50000000  1
  O  O235  1  0.22700000  0.09850000  0.00000000  1
  O  O236  1  0.72700000  0.59850000  0.50000000  1
  O  O237  1  0.77300000  0.90150000  0.00000000  1
  O  O238  1  0.27300000  0.40150000  0.50000000  1
