# generated using pymatgen
data_Zr12H71C128(NO16)4
_symmetry_space_group_name_H-M   'P 1'
_cell_length_a   14.87200000
_cell_length_b   14.87200000
_cell_length_c   26.12300000
_cell_angle_alpha   90.00000000
_cell_angle_beta   90.00000000
_cell_angle_gamma   90.00000000
_symmetry_Int_Tables_number   1
_chemical_formula_structural   Zr12H71C128(NO16)4
_chemical_formula_sum   'Zr12 H71 C128 N4 O64'
_cell_volume   5777.79067923
_cell_formula_units_Z   1
loop_
 _symmetry_equiv_pos_site_id
 _symmetry_equiv_pos_as_xyz
  1  'x, y, z'
loop_
 _atom_site_type_symbol
 _atom_site_label
 _atom_site_symmetry_multiplicity
 _atom_site_fract_x
 _atom_site_fract_y
 _atom_site_fract_z
 _atom_site_occupancy
  Zr  Zr0  1  0.38137000  0.38137000  0.00000000  1
  Zr  Zr1  1  0.88137000  0.88137000  0.50000000  1
  Zr  Zr2  1  0.61863000  0.61863000  0.00000000  1
  Zr  Zr3  1  0.11863000  0.11863000  0.50000000  1
  Zr  Zr4  1  0.61863000  0.38137000  0.00000000  1
  Zr  Zr5  1  0.11863000  0.88137000  0.50000000  1
  Zr  Zr6  1  0.38137000  0.61863000  0.00000000  1
  Zr  Zr7  1  0.88137000  0.11863000  0.50000000  1
  Zr  Zr8  1  0.50000000  0.50000000  0.09402000  1
  Zr  Zr9  1  0.00000000  0.00000000  0.59402000  1
  Zr  Zr10  1  0.50000000  0.50000000  0.90598000  1
  Zr  Zr11  1  0.00000000  0.00000000  0.40598000  1
  H  H12  1  0.22750000  0.22750000  0.11970000  1
  H  H13  1  0.37060000  0.37060000  0.22130000  1
  H  H14  1  0.34670000  0.34670000  0.31450000  1
  H  H15  1  0.72750000  0.72750000  0.61970000  1
  H  H16  1  0.87060000  0.87060000  0.72130000  1
  H  H17  1  0.84670000  0.84670000  0.81450000  1
  H  H18  1  0.77250000  0.77250000  0.11970000  1
  H  H19  1  0.62940000  0.62940000  0.22130000  1
  H  H20  1  0.65330000  0.65330000  0.31450000  1
  H  H21  1  0.27250000  0.27250000  0.61970000  1
  H  H22  1  0.12940000  0.12940000  0.72130000  1
  H  H23  1  0.15330000  0.15330000  0.81450000  1
  H  H24  1  0.77250000  0.22750000  0.11970000  1
  H  H25  1  0.62940000  0.37060000  0.22130000  1
  H  H26  1  0.65330000  0.34670000  0.31450000  1
  H  H27  1  0.27250000  0.72750000  0.61970000  1
  H  H28  1  0.12940000  0.87060000  0.72130000  1
  H  H29  1  0.15330000  0.84670000  0.81450000  1
  H  H30  1  0.22750000  0.77250000  0.11970000  1
  H  H31  1  0.37060000  0.62940000  0.22130000  1
  H  H32  1  0.34670000  0.65330000  0.31450000  1
  H  H33  1  0.72750000  0.27250000  0.61970000  1
  H  H34  1  0.87060000  0.12940000  0.72130000  1
  H  H35  1  0.84670000  0.15330000  0.81450000  1
  H  H36  1  0.77250000  0.22750000  0.88030000  1
  H  H37  1  0.62940000  0.37060000  0.77870000  1
  H  H38  1  0.65330000  0.34670000  0.68550000  1
  H  H39  1  0.27250000  0.72750000  0.38030000  1
  H  H40  1  0.12940000  0.87060000  0.27870000  1
  H  H41  1  0.15330000  0.84670000  0.18550000  1
  H  H42  1  0.22750000  0.77250000  0.88030000  1
  H  H43  1  0.37060000  0.62940000  0.77870000  1
  H  H44  1  0.34670000  0.65330000  0.68550000  1
  H  H45  1  0.72750000  0.27250000  0.38030000  1
  H  H46  1  0.87060000  0.12940000  0.27870000  1
  H  H47  1  0.84670000  0.15330000  0.18550000  1
  H  H48  1  0.22750000  0.22750000  0.88030000  1
  H  H49  1  0.37060000  0.37060000  0.77870000  1
  H  H50  1  0.34670000  0.34670000  0.68550000  1
  H  H51  1  0.72750000  0.72750000  0.38030000  1
  H  H52  1  0.87060000  0.87060000  0.27870000  1
  H  H53  1  0.84670000  0.84670000  0.18550000  1
  H  H54  1  0.77250000  0.77250000  0.88030000  1
  H  H55  1  0.62940000  0.62940000  0.77870000  1
  H  H56  1  0.65330000  0.65330000  0.68550000  1
  H  H57  1  0.27250000  0.27250000  0.38030000  1
  H  H58  1  0.12940000  0.12940000  0.27870000  1
  H  H59  1  0.15330000  0.15330000  0.18550000  1
  H  H60  1  0.33000000  0.14380000  0.00000000  1
  H  H61  1  0.28900000  0.05110000  0.00000000  1
  H  H62  1  0.86630000  0.57880000  0.50000000  1
  H  H63  1  0.63370000  0.92120000  0.00000000  1
  H  H64  1  0.13370000  0.42120000  0.50000000  1
  H  H65  1  0.92120000  0.36630000  0.00000000  1
  H  H66  1  0.85620000  0.33000000  0.00000000  1
  H  H67  1  0.94890000  0.28900000  0.00000000  1
  H  H68  1  0.42120000  0.86630000  0.50000000  1
  H  H69  1  0.35620000  0.83000000  0.50000000  1
  H  H70  1  0.44890000  0.78900000  0.50000000  1
  H  H71  1  0.07880000  0.63370000  0.00000000  1
  H  H72  1  0.57880000  0.13370000  0.50000000  1
  H  H73  1  0.63370000  0.07880000  0.00000000  1
  H  H74  1  0.13370000  0.57880000  0.50000000  1
  H  H75  1  0.36630000  0.92120000  0.00000000  1
  H  H76  1  0.86630000  0.42120000  0.50000000  1
  H  H77  1  0.83000000  0.35620000  0.50000000  1
  H  H78  1  0.78900000  0.44890000  0.50000000  1
  H  H79  1  0.07880000  0.36630000  0.00000000  1
  H  H80  1  0.57880000  0.86630000  0.50000000  1
  H  H81  1  0.92120000  0.63370000  0.00000000  1
  H  H82  1  0.42120000  0.13370000  0.50000000  1
  C  C83  1  0.35370000  0.35370000  0.12290000  1
  C  C84  1  0.24120000  0.24120000  0.15392000  1
  C  C85  1  0.30570000  0.30570000  0.16480000  1
  C  C86  1  0.32670000  0.32670000  0.21434000  1
  C  C87  1  0.28260000  0.28260000  0.25518000  1
  C  C88  1  0.30300000  0.30300000  0.30680000  1
  C  C89  1  0.85370000  0.85370000  0.62290000  1
  C  C90  1  0.74120000  0.74120000  0.65392000  1
  C  C91  1  0.80570000  0.80570000  0.66480000  1
  C  C92  1  0.82670000  0.82670000  0.71434000  1
  C  C93  1  0.78260000  0.78260000  0.75518000  1
  C  C94  1  0.80300000  0.80300000  0.80680000  1
  C  C95  1  0.64630000  0.64630000  0.12290000  1
  C  C96  1  0.75880000  0.75880000  0.15392000  1
  C  C97  1  0.69430000  0.69430000  0.16480000  1
  C  C98  1  0.67330000  0.67330000  0.21434000  1
  C  C99  1  0.71740000  0.71740000  0.25518000  1
  C  C100  1  0.69700000  0.69700000  0.30680000  1
  C  C101  1  0.14630000  0.14630000  0.62290000  1
  C  C102  1  0.25880000  0.25880000  0.65392000  1
  C  C103  1  0.19430000  0.19430000  0.66480000  1
  C  C104  1  0.17330000  0.17330000  0.71434000  1
  C  C105  1  0.21740000  0.21740000  0.75518000  1
  C  C106  1  0.19700000  0.19700000  0.80680000  1
  C  C107  1  0.64630000  0.35370000  0.12290000  1
  C  C108  1  0.75880000  0.24120000  0.15392000  1
  C  C109  1  0.69430000  0.30570000  0.16480000  1
  C  C110  1  0.67330000  0.32670000  0.21434000  1
  C  C111  1  0.71740000  0.28260000  0.25518000  1
  C  C112  1  0.69700000  0.30300000  0.30680000  1
  C  C113  1  0.14630000  0.85370000  0.62290000  1
  C  C114  1  0.25880000  0.74120000  0.65392000  1
  C  C115  1  0.19430000  0.80570000  0.66480000  1
  C  C116  1  0.17330000  0.82670000  0.71434000  1
  C  C117  1  0.21740000  0.78260000  0.75518000  1
  C  C118  1  0.19700000  0.80300000  0.80680000  1
  C  C119  1  0.35370000  0.64630000  0.12290000  1
  C  C120  1  0.24120000  0.75880000  0.15392000  1
  C  C121  1  0.30570000  0.69430000  0.16480000  1
  C  C122  1  0.32670000  0.67330000  0.21434000  1
  C  C123  1  0.28260000  0.71740000  0.25518000  1
  C  C124  1  0.30300000  0.69700000  0.30680000  1
  C  C125  1  0.85370000  0.14630000  0.62290000  1
  C  C126  1  0.74120000  0.25880000  0.65392000  1
  C  C127  1  0.80570000  0.19430000  0.66480000  1
  C  C128  1  0.82670000  0.17330000  0.71434000  1
  C  C129  1  0.78260000  0.21740000  0.75518000  1
  C  C130  1  0.80300000  0.19700000  0.80680000  1
  C  C131  1  0.64630000  0.35370000  0.87710000  1
  C  C132  1  0.75880000  0.24120000  0.84608000  1
  C  C133  1  0.69430000  0.30570000  0.83520000  1
  C  C134  1  0.67330000  0.32670000  0.78566000  1
  C  C135  1  0.71740000  0.28260000  0.74482000  1
  C  C136  1  0.69700000  0.30300000  0.69320000  1
  C  C137  1  0.14630000  0.85370000  0.37710000  1
  C  C138  1  0.25880000  0.74120000  0.34608000  1
  C  C139  1  0.19430000  0.80570000  0.33520000  1
  C  C140  1  0.17330000  0.82670000  0.28566000  1
  C  C141  1  0.21740000  0.78260000  0.24482000  1
  C  C142  1  0.19700000  0.80300000  0.19320000  1
  C  C143  1  0.35370000  0.64630000  0.87710000  1
  C  C144  1  0.24120000  0.75880000  0.84608000  1
  C  C145  1  0.30570000  0.69430000  0.83520000  1
  C  C146  1  0.32670000  0.67330000  0.78566000  1
  C  C147  1  0.28260000  0.71740000  0.74482000  1
  C  C148  1  0.30300000  0.69700000  0.69320000  1
  C  C149  1  0.85370000  0.14630000  0.37710000  1
  C  C150  1  0.74120000  0.25880000  0.34608000  1
  C  C151  1  0.80570000  0.19430000  0.33520000  1
  C  C152  1  0.82670000  0.17330000  0.28566000  1
  C  C153  1  0.78260000  0.21740000  0.24482000  1
  C  C154  1  0.80300000  0.19700000  0.19320000  1
  C  C155  1  0.35370000  0.35370000  0.87710000  1
  C  C156  1  0.24120000  0.24120000  0.84608000  1
  C  C157  1  0.30570000  0.30570000  0.83520000  1
  C  C158  1  0.32670000  0.32670000  0.78566000  1
  C  C159  1  0.28260000  0.28260000  0.74482000  1
  C  C160  1  0.30300000  0.30300000  0.69320000  1
  C  C161  1  0.85370000  0.85370000  0.37710000  1
  C  C162  1  0.74120000  0.74120000  0.34608000  1
  C  C163  1  0.80570000  0.80570000  0.33520000  1
  C  C164  1  0.82670000  0.82670000  0.28566000  1
  C  C165  1  0.78260000  0.78260000  0.24482000  1
  C  C166  1  0.80300000  0.80300000  0.19320000  1
  C  C167  1  0.64630000  0.64630000  0.87710000  1
  C  C168  1  0.75880000  0.75880000  0.84608000  1
  C  C169  1  0.69430000  0.69430000  0.83520000  1
  C  C170  1  0.67330000  0.67330000  0.78566000  1
  C  C171  1  0.71740000  0.71740000  0.74482000  1
  C  C172  1  0.69700000  0.69700000  0.69320000  1
  C  C173  1  0.14630000  0.14630000  0.37710000  1
  C  C174  1  0.25880000  0.25880000  0.34608000  1
  C  C175  1  0.19430000  0.19430000  0.33520000  1
  C  C176  1  0.17330000  0.17330000  0.28566000  1
  C  C177  1  0.21740000  0.21740000  0.24482000  1
  C  C178  1  0.19700000  0.19700000  0.19320000  1
  C  C179  1  0.42150000  0.04790000  0.00000000  1
  C  C180  1  0.92150000  0.54790000  0.50000000  1
  C  C181  1  0.57850000  0.95210000  0.00000000  1
  C  C182  1  0.07850000  0.45210000  0.50000000  1
  C  C183  1  0.95210000  0.42150000  0.00000000  1
  C  C184  1  0.45210000  0.92150000  0.50000000  1
  C  C185  1  0.04790000  0.57850000  0.00000000  1
  C  C186  1  0.54790000  0.07850000  0.50000000  1
  C  C187  1  0.57850000  0.04790000  0.00000000  1
  C  C188  1  0.07850000  0.54790000  0.50000000  1
  C  C189  1  0.42150000  0.95210000  0.00000000  1
  C  C190  1  0.92150000  0.45210000  0.50000000  1
  C  C191  1  0.04790000  0.42150000  0.00000000  1
  C  C192  1  0.54790000  0.92150000  0.50000000  1
  C  C193  1  0.95210000  0.57850000  0.00000000  1
  C  C194  1  0.45210000  0.07850000  0.50000000  1
  C  C195  1  0.50000000  0.19560000  0.00000000  1
  C  C196  1  0.50000000  0.09610000  0.00000000  1
  C  C197  1  0.00000000  0.69560000  0.50000000  1
  C  C198  1  0.00000000  0.59610000  0.50000000  1
  C  C199  1  0.50000000  0.80440000  0.00000000  1
  C  C200  1  0.50000000  0.90390000  0.00000000  1
  C  C201  1  0.00000000  0.30440000  0.50000000  1
  C  C202  1  0.00000000  0.40390000  0.50000000  1
  C  C203  1  0.80440000  0.50000000  0.00000000  1
  C  C204  1  0.90390000  0.50000000  0.00000000  1
  C  C205  1  0.30440000  0.00000000  0.50000000  1
  C  C206  1  0.40390000  0.00000000  0.50000000  1
  C  C207  1  0.19560000  0.50000000  0.00000000  1
  C  C208  1  0.09610000  0.50000000  0.00000000  1
  C  C209  1  0.69560000  0.00000000  0.50000000  1
  C  C210  1  0.59610000  0.00000000  0.50000000  1
  N  N211  1  0.33620000  0.08600000  0.00000000  1
  N  N212  1  0.91400000  0.33620000  0.00000000  1
  N  N213  1  0.41400000  0.83620000  0.50000000  1
  N  N214  1  0.83620000  0.41400000  0.50000000  1
  O  O215  1  0.50000000  0.38280000  0.04528000  1
  O  O216  1  0.00000000  0.88280000  0.54528000  1
  O  O217  1  0.50000000  0.61720000  0.04528000  1
  O  O218  1  0.00000000  0.11720000  0.54528000  1
  O  O219  1  0.61720000  0.50000000  0.04528000  1
  O  O220  1  0.11720000  0.00000000  0.54528000  1
  O  O221  1  0.38280000  0.50000000  0.04528000  1
  O  O222  1  0.88280000  0.00000000  0.54528000  1
  O  O223  1  0.50000000  0.38280000  0.95472000  1
  O  O224  1  0.00000000  0.88280000  0.45472000  1
  O  O225  1  0.50000000  0.61720000  0.95472000  1
  O  O226  1  0.00000000  0.11720000  0.45472000  1
  O  O227  1  0.38280000  0.50000000  0.95472000  1
  O  O228  1  0.88280000  0.00000000  0.45472000  1
  O  O229  1  0.61720000  0.50000000  0.95472000  1
  O  O230  1  0.11720000  0.00000000  0.45472000  1
  O  O231  1  0.33292000  0.33292000  0.07722000  1
  O  O232  1  0.41067000  0.41067000  0.13637000  1
  O  O233  1  0.83292000  0.83292000  0.57722000  1
  O  O234  1  0.91067000  0.91067000  0.63637000  1
  O  O235  1  0.66708000  0.66708000  0.07722000  1
  O  O236  1  0.58933000  0.58933000  0.13637000  1
  O  O237  1  0.16708000  0.16708000  0.57722000  1
  O  O238  1  0.08933000  0.08933000  0.63637000  1
  O  O239  1  0.66708000  0.33292000  0.07722000  1
  O  O240  1  0.58933000  0.41067000  0.13637000  1
  O  O241  1  0.16708000  0.83292000  0.57722000  1
  O  O242  1  0.08933000  0.91067000  0.63637000  1
  O  O243  1  0.33292000  0.66708000  0.07722000  1
  O  O244  1  0.41067000  0.58933000  0.13637000  1
  O  O245  1  0.83292000  0.16708000  0.57722000  1
  O  O246  1  0.91067000  0.08933000  0.63637000  1
  O  O247  1  0.66708000  0.33292000  0.92278000  1
  O  O248  1  0.58933000  0.41067000  0.86363000  1
  O  O249  1  0.16708000  0.83292000  0.42278000  1
  O  O250  1  0.08933000  0.91067000  0.36363000  1
  O  O251  1  0.33292000  0.66708000  0.92278000  1
  O  O252  1  0.41067000  0.58933000  0.86363000  1
  O  O253  1  0.83292000  0.16708000  0.42278000  1
  O  O254  1  0.91067000  0.08933000  0.36363000  1
  O  O255  1  0.33292000  0.33292000  0.92278000  1
  O  O256  1  0.41067000  0.41067000  0.86363000  1
  O  O257  1  0.83292000  0.83292000  0.42278000  1
  O  O258  1  0.91067000  0.91067000  0.36363000  1
  O  O259  1  0.66708000  0.66708000  0.92278000  1
  O  O260  1  0.58933000  0.58933000  0.86363000  1
  O  O261  1  0.16708000  0.16708000  0.42278000  1
  O  O262  1  0.08933000  0.08933000  0.36363000  1
  O  O263  1  0.40580000  0.23350000  0.00000000  1
  O  O264  1  0.90580000  0.73350000  0.50000000  1
  O  O265  1  0.59420000  0.76650000  0.00000000  1
  O  O266  1  0.09420000  0.26650000  0.50000000  1
  O  O267  1  0.76650000  0.40580000  0.00000000  1
  O  O268  1  0.26650000  0.90580000  0.50000000  1
  O  O269  1  0.23350000  0.59420000  0.00000000  1
  O  O270  1  0.73350000  0.09420000  0.50000000  1
  O  O271  1  0.59420000  0.23350000  0.00000000  1
  O  O272  1  0.09420000  0.73350000  0.50000000  1
  O  O273  1  0.40580000  0.76650000  0.00000000  1
  O  O274  1  0.90580000  0.26650000  0.50000000  1
  O  O275  1  0.23350000  0.40580000  0.00000000  1
  O  O276  1  0.73350000  0.90580000  0.50000000  1
  O  O277  1  0.76650000  0.59420000  0.00000000  1
  O  O278  1  0.26650000  0.09420000  0.50000000  1
