# generated using pymatgen
data_Zr3H12C32NO22
_symmetry_space_group_name_H-M   'P 1'
_cell_length_a   14.83900000
_cell_length_b   14.83900000
_cell_length_c   16.71790015
_cell_angle_alpha   116.34695546
_cell_angle_beta   116.34695546
_cell_angle_gamma   90.00000000
_symmetry_Int_Tables_number   1
_chemical_formula_structural   Zr3H12C32NO22
_chemical_formula_sum   'Zr6 H24 C64 N2 O44'
_cell_volume   2865.84991181
_cell_formula_units_Z   2
loop_
 _symmetry_equiv_pos_site_id
 _symmetry_equiv_pos_as_xyz
  1  'x, y, z'
loop_
 _atom_site_type_symbol
 _atom_site_label
 _atom_site_symmetry_multiplicity
 _atom_site_fract_x
 _atom_site_fract_y
 _atom_site_fract_z
 _atom_site_occupancy
  C  C0  1  0.47440000  0.47440000  0.24480000  1
  C  C1  1  0.46970000  0.46970000  0.32880000  1
  C  C2  1  0.54000000  0.54000000  0.42740000  1
  C  C3  1  0.39530000  0.39530000  0.30720000  1
  C  C4  1  0.38930000  0.38930000  0.38520000  1
  C  C5  1  0.46320000  0.46320000  0.49000000  1
  C  C6  1  0.77040000  0.77040000  0.24480000  1
  C  C7  1  0.85910000  0.85910000  0.32880000  1
  C  C8  1  0.88740000  0.88740000  0.42740000  1
  C  C9  1  0.91190000  0.91190000  0.30720000  1
  C  C10  1  0.99590000  0.99590000  0.38520000  1
  C  C11  1  0.02680000  0.02680000  0.49000000  1
  C  C12  1  0.77040000  0.47440000  0.24480000  1
  C  C13  1  0.85910000  0.46970000  0.32880000  1
  C  C14  1  0.88740000  0.54000000  0.42740000  1
  C  C15  1  0.91190000  0.39530000  0.30720000  1
  C  C16  1  0.99590000  0.38930000  0.38520000  1
  C  C17  1  0.02680000  0.46320000  0.49000000  1
  C  C18  1  0.47440000  0.77040000  0.24480000  1
  C  C19  1  0.46970000  0.85910000  0.32880000  1
  C  C20  1  0.54000000  0.88740000  0.42740000  1
  C  C21  1  0.39530000  0.91190000  0.30720000  1
  C  C22  1  0.38930000  0.99590000  0.38520000  1
  C  C23  1  0.46320000  0.02680000  0.49000000  1
  C  C24  1  0.52560000  0.22960000  0.75520000  1
  C  C25  1  0.53030000  0.14090000  0.67120000  1
  C  C26  1  0.46000000  0.11260000  0.57260000  1
  C  C27  1  0.60470000  0.08810000  0.69280000  1
  C  C28  1  0.61070000  0.00410000  0.61480000  1
  C  C29  1  0.53680000  0.97320000  0.51000000  1
  C  C30  1  0.22960000  0.52560000  0.75520000  1
  C  C31  1  0.14090000  0.53030000  0.67120000  1
  C  C32  1  0.11260000  0.46000000  0.57260000  1
  C  C33  1  0.08810000  0.60470000  0.69280000  1
  C  C34  1  0.00410000  0.61070000  0.61480000  1
  C  C35  1  0.97320000  0.53680000  0.51000000  1
  C  C36  1  0.22960000  0.22960000  0.75520000  1
  C  C37  1  0.14090000  0.14090000  0.67120000  1
  C  C38  1  0.11260000  0.11260000  0.57260000  1
  C  C39  1  0.08810000  0.08810000  0.69280000  1
  C  C40  1  0.00410000  0.00410000  0.61480000  1
  C  C41  1  0.97320000  0.97320000  0.51000000  1
  C  C42  1  0.52560000  0.52560000  0.75520000  1
  C  C43  1  0.53030000  0.53030000  0.67120000  1
  C  C44  1  0.46000000  0.46000000  0.57260000  1
  C  C45  1  0.60470000  0.60470000  0.69280000  1
  C  C46  1  0.61070000  0.61070000  0.61480000  1
  C  C47  1  0.53680000  0.53680000  0.51000000  1
  C  C48  1  0.42020000  0.04610000  0.00000000  1
  C  C49  1  0.57980000  0.95390000  0.00000000  1
  C  C50  1  0.95390000  0.42020000  0.00000000  1
  C  C51  1  0.04610000  0.57980000  0.00000000  1
  C  C52  1  0.57980000  0.04610000  0.00000000  1
  C  C53  1  0.42020000  0.95390000  0.00000000  1
  C  C54  1  0.04610000  0.42020000  0.00000000  1
  C  C55  1  0.95390000  0.57980000  0.00000000  1
  C  C56  1  0.50000000  0.19200000  0.00000000  1
  C  C57  1  0.50000000  0.09440000  0.00000000  1
  C  C58  1  0.50000000  0.80800000  0.00000000  1
  C  C59  1  0.50000000  0.90560000  0.00000000  1
  C  C60  1  0.80800000  0.50000000  0.00000000  1
  C  C61  1  0.90560000  0.50000000  0.00000000  1
  C  C62  1  0.19200000  0.50000000  0.00000000  1
  C  C63  1  0.09440000  0.50000000  0.00000000  1
  H  H64  1  0.59030000  0.59030000  0.44100000  1
  H  H65  1  0.34800000  0.34800000  0.23920000  1
  H  H66  1  0.33840000  0.33840000  0.37000000  1
  H  H67  1  0.85070000  0.85070000  0.44100000  1
  H  H68  1  0.89120000  0.89120000  0.23920000  1
  H  H69  1  0.03160000  0.03160000  0.37000000  1
  H  H70  1  0.85070000  0.59030000  0.44100000  1
  H  H71  1  0.89120000  0.34800000  0.23920000  1
  H  H72  1  0.03160000  0.33840000  0.37000000  1
  H  H73  1  0.59030000  0.85070000  0.44100000  1
  H  H74  1  0.34800000  0.89120000  0.23920000  1
  H  H75  1  0.33840000  0.03160000  0.37000000  1
  H  H76  1  0.40970000  0.14930000  0.55900000  1
  H  H77  1  0.65200000  0.10880000  0.76080000  1
  H  H78  1  0.66160000  0.96840000  0.63000000  1
  H  H79  1  0.14930000  0.40970000  0.55900000  1
  H  H80  1  0.10880000  0.65200000  0.76080000  1
  H  H81  1  0.96840000  0.66160000  0.63000000  1
  H  H82  1  0.14930000  0.14930000  0.55900000  1
  H  H83  1  0.10880000  0.10880000  0.76080000  1
  H  H84  1  0.96840000  0.96840000  0.63000000  1
  H  H85  1  0.40970000  0.40970000  0.55900000  1
  H  H86  1  0.65200000  0.65200000  0.76080000  1
  H  H87  1  0.66160000  0.66160000  0.63000000  1
  N  N88  1  0.33010000  0.91400000  0.00000000  1
  N  N89  1  0.08600000  0.33010000  0.00000000  1
  O  O90  1  0.24130000  0.85330000  0.92260000  1
  O  O91  1  0.06930000  0.24130000  0.92260000  1
  O  O92  1  0.31870000  0.93070000  0.07740000  1
  O  O93  1  0.14670000  0.31870000  0.07740000  1
  O  O94  1  0.43880000  0.53960000  0.07920000  1
  O  O95  1  0.41580000  0.55220000  0.10440000  1
  O  O96  1  0.64040000  0.53960000  0.07920000  1
  O  O97  1  0.68860000  0.55220000  0.10440000  1
  O  O98  1  0.53960000  0.43880000  0.07920000  1
  O  O99  1  0.55220000  0.41580000  0.10440000  1
  O  O100  1  0.53960000  0.64040000  0.07920000  1
  O  O101  1  0.55220000  0.68860000  0.10440000  1
  O  O102  1  0.56120000  0.46040000  0.92080000  1
  O  O103  1  0.58420000  0.44780000  0.89560000  1
  O  O104  1  0.35960000  0.46040000  0.92080000  1
  O  O105  1  0.31140000  0.44780000  0.89560000  1
  O  O106  1  0.46040000  0.35960000  0.92080000  1
  O  O107  1  0.44780000  0.31140000  0.89560000  1
  O  O108  1  0.46040000  0.56120000  0.92080000  1
  O  O109  1  0.44780000  0.58420000  0.89560000  1
  O  O110  1  0.40861000  0.40861000  0.15302000  1
  O  O111  1  0.54870000  0.54870000  0.27440000  1
  O  O112  1  0.74441000  0.74441000  0.15302000  1
  O  O113  1  0.72570000  0.72570000  0.27440000  1
  O  O114  1  0.74441000  0.40861000  0.15302000  1
  O  O115  1  0.72570000  0.54870000  0.27440000  1
  O  O116  1  0.40861000  0.74441000  0.15302000  1
  O  O117  1  0.54870000  0.72570000  0.27440000  1
  O  O118  1  0.59139000  0.25559000  0.84698000  1
  O  O119  1  0.45130000  0.27430000  0.72560000  1
  O  O120  1  0.25559000  0.59139000  0.84698000  1
  O  O121  1  0.27430000  0.45130000  0.72560000  1
  O  O122  1  0.25559000  0.25559000  0.84698000  1
  O  O123  1  0.27430000  0.27430000  0.72560000  1
  O  O124  1  0.59139000  0.59139000  0.84698000  1
  O  O125  1  0.45130000  0.45130000  0.72560000  1
  O  O126  1  0.41070000  0.23450000  0.00000000  1
  O  O127  1  0.58930000  0.76550000  0.00000000  1
  O  O128  1  0.76550000  0.41070000  0.00000000  1
  O  O129  1  0.23450000  0.58930000  0.00000000  1
  O  O130  1  0.58930000  0.23450000  0.00000000  1
  O  O131  1  0.41070000  0.76550000  0.00000000  1
  O  O132  1  0.23450000  0.41070000  0.00000000  1
  O  O133  1  0.76550000  0.58930000  0.00000000  1
  Zr  Zr134  1  0.59458000  0.59458000  0.18916000  1
  Zr  Zr135  1  0.40542000  0.40542000  0.81084000  1
  Zr  Zr136  1  0.38139000  0.38139000  0.00000000  1
  Zr  Zr137  1  0.61861000  0.61861000  0.00000000  1
  Zr  Zr138  1  0.61861000  0.38139000  0.00000000  1
  Zr  Zr139  1  0.38139000  0.61861000  0.00000000  1
