# generated using pymatgen
data_ZrH4C8O5
_symmetry_space_group_name_H-M   'P 1'
_cell_length_a   7.80220000
_cell_length_b   11.17950000
_cell_length_c   13.43063337
_cell_angle_alpha   114.59453546
_cell_angle_beta   102.58176866
_cell_angle_gamma   90.00000000
_symmetry_Int_Tables_number   1
_chemical_formula_structural   ZrH4C8O5
_chemical_formula_sum   'Zr4 H16 C32 O20'
_cell_volume   1034.18216306
_cell_formula_units_Z   4
loop_
 _symmetry_equiv_pos_site_id
 _symmetry_equiv_pos_as_xyz
  1  'x, y, z'
loop_
 _atom_site_type_symbol
 _atom_site_label
 _atom_site_symmetry_multiplicity
 _atom_site_fract_x
 _atom_site_fract_y
 _atom_site_fract_z
 _atom_site_occupancy
  C  C0  1  0.41200000  0.25050000  0.30200000  1
  C  C1  1  0.47680000  0.37050000  0.39620000  1
  C  C2  1  0.62460000  0.45350000  0.42820000  1
  C  C3  1  0.35910000  0.42090000  0.47740000  1
  C  C4  1  0.78150000  0.36440000  0.90700000  1
  C  C5  1  0.79810000  0.49720000  0.91300000  1
  C  C6  1  0.75000000  0.75120000  0.00000000  1
  C  C7  1  0.75000000  0.21660000  0.00000000  1
  C  C8  1  0.75000000  0.34600000  1.00000000  1
  C  C9  1  0.75000000  0.60320000  0.00000000  1
  C  C10  1  0.08800000  0.94850000  0.69800000  1
  C  C11  1  0.02320000  0.97430000  0.60380000  1
  C  C12  1  0.87540000  0.02530000  0.57180000  1
  C  C13  1  0.14090000  0.94350000  0.52260000  1
  C  C14  1  0.71850000  0.45740000  0.09300000  1
  C  C15  1  0.70190000  0.58420000  0.08700000  1
  C  C16  1  0.58800000  0.74950000  0.69800000  1
  C  C17  1  0.52320000  0.62950000  0.60380000  1
  C  C18  1  0.37540000  0.54650000  0.57180000  1
  C  C19  1  0.64090000  0.57910000  0.52260000  1
  C  C20  1  0.21850000  0.63560000  0.09300000  1
  C  C21  1  0.20190000  0.50280000  0.08700000  1
  C  C22  1  0.25000000  0.24880000  1.00000000  1
  C  C23  1  0.25000000  0.78340000  0.00000000  1
  C  C24  1  0.25000000  0.65400000  1.00000000  1
  C  C25  1  0.25000000  0.39680000  1.00000000  1
  C  C26  1  0.91200000  0.05150000  0.30200000  1
  C  C27  1  0.97680000  0.02570000  0.39620000  1
  C  C28  1  0.12460000  0.97470000  0.42820000  1
  C  C29  1  0.85910000  0.05650000  0.47740000  1
  C  C30  1  0.28150000  0.54260000  0.90700000  1
  C  C31  1  0.29810000  0.41580000  0.91300000  1
  H  H32  1  0.73281000  0.42271000  0.38018000  1
  H  H33  1  0.23865000  0.35526000  0.46710000  1
  H  H34  1  0.79384000  0.27534000  0.82756000  1
  H  H35  1  0.85036000  0.51452000  0.84666000  1
  H  H36  1  0.76719000  0.04253000  0.61982000  1
  H  H37  1  0.26135000  0.88816000  0.53290000  1
  H  H38  1  0.70616000  0.44778000  0.17244000  1
  H  H39  1  0.64964000  0.66786000  0.15334000  1
  H  H40  1  0.26719000  0.57729000  0.61982000  1
  H  H41  1  0.76135000  0.64474000  0.53290000  1
  H  H42  1  0.20616000  0.72466000  0.17244000  1
  H  H43  1  0.14964000  0.48548000  0.15334000  1
  H  H44  1  0.23281000  0.95747000  0.38018000  1
  H  H45  1  0.73865000  0.11184000  0.46710000  1
  H  H46  1  0.29384000  0.55222000  0.82756000  1
  H  H47  1  0.35036000  0.33214000  0.84666000  1
  O  O48  1  0.72210000  0.85680000  0.08640000  1
  O  O49  1  0.51510000  0.20130000  0.22960000  1
  O  O50  1  0.39440000  0.00950000  0.06040000  1
  O  O51  1  0.65800000  0.23670000  0.07260000  1
  O  O52  1  0.25370000  0.20640000  0.27200000  1
  O  O53  1  0.77790000  0.77040000  0.91360000  1
  O  O54  1  0.98490000  0.97170000  0.77040000  1
  O  O55  1  0.10560000  0.94910000  0.93960000  1
  O  O56  1  0.84200000  0.16410000  0.92740000  1
  O  O57  1  0.24630000  0.93440000  0.72800000  1
  O  O58  1  0.27790000  0.14320000  0.91360000  1
  O  O59  1  0.48490000  0.79870000  0.77040000  1
  O  O60  1  0.60560000  0.99050000  0.93960000  1
  O  O61  1  0.34200000  0.76330000  0.92740000  1
  O  O62  1  0.74630000  0.79360000  0.72800000  1
  O  O63  1  0.22210000  0.22960000  0.08640000  1
  O  O64  1  0.01510000  0.02830000  0.22960000  1
  O  O65  1  0.89440000  0.05090000  0.06040000  1
  O  O66  1  0.15800000  0.83590000  0.07260000  1
  O  O67  1  0.75370000  0.06560000  0.27200000  1
  Zr  Zr68  1  0.66650000  0.07250000  0.11100000  1
  Zr  Zr69  1  0.83350000  0.96150000  0.88900000  1
  Zr  Zr70  1  0.33350000  0.92750000  0.88900000  1
  Zr  Zr71  1  0.16650000  0.03850000  0.11100000  1
